Initialize SIGNATURE TABLE
ST_SET: 1
ST_WAY: 256
ST_TAG_BIT: 16
ST_TAG_MASK: ffff

Initialize PATTERN TABLE
PT_SET: 512
PT_WAY: 4
SIG_DELTA_BIT: 7
C_SIG_BIT: 4
C_DELTA_BIT: 4

Initialize PREFETCH FILTER
FILTER_SET: 1024

*** ChampSim Multicore Out-of-Order Simulator ***

Warmup Instructions: 50000000
Simulation Instructions: 50000000
Number of CPUs: 1
LLC sets: 2048
LLC ways: 16
Off-chip DRAM Size: 4096 MB Channels: 1 Width: 64-bit Data Rate: 3200 MT/s

CPU 0 runs /Users/brandon/Documents/CoursesWi22/CSE240C/Homework1/ChampSim/ipc1_public/client_001.champsimtrace.xz
CPU 0 L1D next line prefetcher
Heartbeat CPU 0 instructions: 10000003 cycles: 3410565 heartbeat IPC: 2.93207 cumulative IPC: 2.93207 (Simulation time: 0 hr 5 min 42 sec) 
Heartbeat CPU 0 instructions: 20000001 cycles: 7118873 heartbeat IPC: 2.69665 cumulative IPC: 2.80943 (Simulation time: 0 hr 13 min 6 sec) 
Heartbeat CPU 0 instructions: 30000001 cycles: 10481529 heartbeat IPC: 2.97384 cumulative IPC: 2.86218 (Simulation time: 0 hr 19 min 12 sec) 
Heartbeat CPU 0 instructions: 40000003 cycles: 14351147 heartbeat IPC: 2.58423 cumulative IPC: 2.78723 (Simulation time: 0 hr 26 min 16 sec) 
Heartbeat CPU 0 instructions: 50000003 cycles: 17647881 heartbeat IPC: 3.03331 cumulative IPC: 2.8332 (Simulation time: 0 hr 32 min 20 sec) 

Warmup complete CPU 0 instructions: 50000003 cycles: 17647881 (Simulation time: 0 hr 32 min 20 sec) 

Heartbeat CPU 0 instructions: 60000000 cycles: 26708863 heartbeat IPC: 1.10363 cumulative IPC: 1.10363 (Simulation time: 0 hr 35 min 39 sec) 
Heartbeat CPU 0 instructions: 70000000 cycles: 33087134 heartbeat IPC: 1.56782 cumulative IPC: 1.2954 (Simulation time: 0 hr 38 min 17 sec) 
Heartbeat CPU 0 instructions: 80000002 cycles: 42437719 heartbeat IPC: 1.06945 cumulative IPC: 1.21017 (Simulation time: 0 hr 41 min 22 sec) 
Heartbeat CPU 0 instructions: 90000000 cycles: 48672454 heartbeat IPC: 1.60392 cumulative IPC: 1.2893 (Simulation time: 0 hr 43 min 55 sec) 
Heartbeat CPU 0 instructions: 100000002 cycles: 57532131 heartbeat IPC: 1.12871 cumulative IPC: 1.25363 (Simulation time: 0 hr 47 min 17 sec) 
Finished CPU 0 instructions: 50000003 cycles: 39884251 cumulative IPC: 1.25363 (Simulation time: 0 hr 47 min 17 sec) 

ChampSim completed all CPUs

Region of Interest Statistics

CPU 0 cumulative IPC: 1.25363 instructions: 50000003 cycles: 39884251
L1D TOTAL     ACCESS:   21220957  HIT:   20384565  MISS:     836392
L1D LOAD      ACCESS:    8813040  HIT:    8418050  MISS:     394990
L1D RFO       ACCESS:    4039244  HIT:    3980137  MISS:      59107
L1D PREFETCH  ACCESS:    8368673  HIT:    7986378  MISS:     382295
L1D WRITEBACK ACCESS:          0  HIT:          0  MISS:          0
L1D PREFETCH  REQUESTED:    8858348  ISSUED:    8549148  USEFUL:     129324  USELESS:     252945
L1D AVERAGE MISS LATENCY: 48.7658 cycles
L1I TOTAL     ACCESS:   17031060  HIT:   16001483  MISS:    1029577
L1I LOAD      ACCESS:    8962315  HIT:    8956321  MISS:       5994
L1I RFO       ACCESS:          0  HIT:          0  MISS:          0
L1I PREFETCH  ACCESS:    8068745  HIT:    7045162  MISS:    1023583
L1I WRITEBACK ACCESS:          0  HIT:          0  MISS:          0
L1I PREFETCH  REQUESTED:    8074647  ISSUED:    8073924  USEFUL:     480379  USELESS:     543133
L1I AVERAGE MISS LATENCY: 17.6341 cycles
L2C TOTAL     ACCESS:    2813679  HIT:    2505634  MISS:     308045
L2C LOAD      ACCESS:     377600  HIT:     265052  MISS:     112548
L2C RFO       ACCESS:      58332  HIT:      20994  MISS:      37338
L2C PREFETCH  ACCESS:    2188172  HIT:    2030276  MISS:     157896
L2C WRITEBACK ACCESS:     189575  HIT:     189312  MISS:        263
L2C PREFETCH  REQUESTED:    1958198  ISSUED:    1953999  USEFUL:      13362  USELESS:     143215
L2C AVERAGE MISS LATENCY: 109.352 cycles
LLC TOTAL     ACCESS:     857333  HIT:     654514  MISS:     202819
LLC LOAD      ACCESS:     112270  HIT:      69646  MISS:      42624
LLC RFO       ACCESS:      37337  HIT:       8936  MISS:      28401
LLC PREFETCH  ACCESS:     600551  HIT:     469466  MISS:     131085
LLC WRITEBACK ACCESS:     107175  HIT:     106466  MISS:        709
LLC PREFETCH  REQUESTED:          0  ISSUED:          0  USEFUL:      27337  USELESS:     105168
LLC AVERAGE MISS LATENCY: 195.389 cycles
Major fault: 0 Minor fault: 3449
CPU 0 L1D next line prefetcher final stats

DRAM Statistics
 CHANNEL 0
 RQ ROW_BUFFER_HIT:      47451  ROW_BUFFER_MISS:     154651
 DBUS_CONGESTED:     117453
 WQ ROW_BUFFER_HIT:      15953  ROW_BUFFER_MISS:      65591  FULL:          0

 AVG_CONGESTED_CYCLE: 5

CPU 0 Branch Prediction Accuracy: 97.9037% MPKI: 3.63418 Average ROB Occupancy at Mispredict: 87.3217

Branch types
NOT_BRANCH: 41331383 82.6628%
BRANCH_DIRECT_JUMP: 455615 0.91123%
BRANCH_INDIRECT: 20390 0.04078%
BRANCH_CONDITIONAL: 6745374 13.4907%
BRANCH_DIRECT_CALL: 494532 0.989064%
BRANCH_INDIRECT_CALL: 228815 0.45763%
BRANCH_RETURN: 723560 1.44712%
BRANCH_OTHER: 0 0%

