Initialize SIGNATURE TABLE
ST_SET: 1
ST_WAY: 256
ST_TAG_BIT: 16
ST_TAG_MASK: ffff

Initialize PATTERN TABLE
PT_SET: 512
PT_WAY: 4
SIG_DELTA_BIT: 7
C_SIG_BIT: 4
C_DELTA_BIT: 4

Initialize PREFETCH FILTER
FILTER_SET: 1024

*** ChampSim Multicore Out-of-Order Simulator ***

Warmup Instructions: 50000000
Simulation Instructions: 50000000
Number of CPUs: 1
LLC sets: 2048
LLC ways: 16
Off-chip DRAM Size: 4096 MB Channels: 1 Width: 64-bit Data Rate: 3200 MT/s

CPU 0 runs /Users/brandon/Documents/CoursesWi22/CSE240C/Homework1/ChampSim/ipc1_public/server_001.champsimtrace.xz
CPU 0 L1D next line prefetcher
Heartbeat CPU 0 instructions: 10000002 cycles: 3156612 heartbeat IPC: 3.16795 cumulative IPC: 3.16795 (Simulation time: 0 hr 5 min 55 sec) 
Heartbeat CPU 0 instructions: 20000000 cycles: 6371786 heartbeat IPC: 3.11025 cumulative IPC: 3.13884 (Simulation time: 0 hr 13 min 23 sec) 
Heartbeat CPU 0 instructions: 30000003 cycles: 9559129 heartbeat IPC: 3.13741 cumulative IPC: 3.13836 (Simulation time: 0 hr 19 min 55 sec) 
Heartbeat CPU 0 instructions: 40000002 cycles: 12767294 heartbeat IPC: 3.11705 cumulative IPC: 3.13301 (Simulation time: 0 hr 26 min 59 sec) 
Heartbeat CPU 0 instructions: 50000003 cycles: 15987125 heartbeat IPC: 3.10575 cumulative IPC: 3.12752 (Simulation time: 0 hr 32 min 42 sec) 

Warmup complete CPU 0 instructions: 50000003 cycles: 15987125 (Simulation time: 0 hr 32 min 42 sec) 

Heartbeat CPU 0 instructions: 60000000 cycles: 23082903 heartbeat IPC: 1.40929 cumulative IPC: 1.40929 (Simulation time: 0 hr 35 min 57 sec) 
Heartbeat CPU 0 instructions: 70000002 cycles: 29926989 heartbeat IPC: 1.46112 cumulative IPC: 1.43473 (Simulation time: 0 hr 38 min 47 sec) 
Heartbeat CPU 0 instructions: 80000002 cycles: 36790684 heartbeat IPC: 1.45694 cumulative IPC: 1.44206 (Simulation time: 0 hr 41 min 39 sec) 
Heartbeat CPU 0 instructions: 90000002 cycles: 43922858 heartbeat IPC: 1.4021 cumulative IPC: 1.43186 (Simulation time: 0 hr 44 min 28 sec) 
Heartbeat CPU 0 instructions: 100000003 cycles: 50683714 heartbeat IPC: 1.4791 cumulative IPC: 1.44106 (Simulation time: 0 hr 48 min 15 sec) 
Finished CPU 0 instructions: 50000000 cycles: 34696589 cumulative IPC: 1.44106 (Simulation time: 0 hr 48 min 15 sec) 

ChampSim completed all CPUs

Region of Interest Statistics

CPU 0 cumulative IPC: 1.44106 instructions: 50000000 cycles: 34696589
L1D TOTAL     ACCESS:   17599785  HIT:   17088713  MISS:     511072
L1D LOAD      ACCESS:    6436756  HIT:    6231120  MISS:     205636
L1D RFO       ACCESS:    5052684  HIT:    4970026  MISS:      82658
L1D PREFETCH  ACCESS:    6110345  HIT:    5887567  MISS:     222778
L1D WRITEBACK ACCESS:          0  HIT:          0  MISS:          0
L1D PREFETCH  REQUESTED:    6466629  ISSUED:    6289285  USEFUL:     131087  USELESS:      91819
L1D AVERAGE MISS LATENCY: 97.2148 cycles
L1I TOTAL     ACCESS:   17304972  HIT:   15940053  MISS:    1364919
L1I LOAD      ACCESS:    8268174  HIT:    8225005  MISS:      43169
L1I RFO       ACCESS:          0  HIT:          0  MISS:          0
L1I PREFETCH  ACCESS:    9036798  HIT:    7715048  MISS:    1321750
L1I WRITEBACK ACCESS:          0  HIT:          0  MISS:          0
L1I PREFETCH  REQUESTED:    9076657  ISSUED:    9071742  USEFUL:     764577  USELESS:     557181
L1I AVERAGE MISS LATENCY: 25.4133 cycles
L2C TOTAL     ACCESS:    2791285  HIT:    2293041  MISS:     498244
L2C LOAD      ACCESS:     182700  HIT:      86609  MISS:      96091
L2C RFO       ACCESS:      80903  HIT:      10003  MISS:      70900
L2C PREFETCH  ACCESS:    2319826  HIT:    1989436  MISS:     330390
L2C WRITEBACK ACCESS:     207856  HIT:     206993  MISS:        863
L2C PREFETCH  REQUESTED:    2197111  ISSUED:    2194783  USEFUL:      19445  USELESS:     310975
L2C AVERAGE MISS LATENCY: 122.696 cycles
LLC TOTAL     ACCESS:    1276418  HIT:     945367  MISS:     331051
LLC LOAD      ACCESS:      95968  HIT:      65116  MISS:      30852
LLC RFO       ACCESS:      70899  HIT:       7047  MISS:      63852
LLC PREFETCH  ACCESS:     940744  HIT:     704576  MISS:     236168
LLC WRITEBACK ACCESS:     168807  HIT:     168628  MISS:        179
LLC PREFETCH  REQUESTED:          0  ISSUED:          0  USEFUL:      26951  USELESS:     204838
LLC AVERAGE MISS LATENCY: 234.157 cycles
Major fault: 0 Minor fault: 16730
CPU 0 L1D next line prefetcher final stats

DRAM Statistics
 CHANNEL 0
 RQ ROW_BUFFER_HIT:      96564  ROW_BUFFER_MISS:     234266
 DBUS_CONGESTED:     222703
 WQ ROW_BUFFER_HIT:      36389  ROW_BUFFER_MISS:     122826  FULL:          0

 AVG_CONGESTED_CYCLE: 6

CPU 0 Branch Prediction Accuracy: 99.5889% MPKI: 0.70108 Average ROB Occupancy at Mispredict: 115.092

Branch types
NOT_BRANCH: 41473579 82.9472%
BRANCH_DIRECT_JUMP: 347941 0.695882%
BRANCH_INDIRECT: 148212 0.296424%
BRANCH_CONDITIONAL: 6817275 13.6346%
BRANCH_DIRECT_CALL: 570724 1.14145%
BRANCH_INDIRECT_CALL: 25133 0.050266%
BRANCH_RETURN: 617123 1.23425%
BRANCH_OTHER: 0 0%

