Initialize SIGNATURE TABLE
ST_SET: 1
ST_WAY: 256
ST_TAG_BIT: 16
ST_TAG_MASK: ffff

Initialize PATTERN TABLE
PT_SET: 512
PT_WAY: 4
SIG_DELTA_BIT: 7
C_SIG_BIT: 4
C_DELTA_BIT: 4

Initialize PREFETCH FILTER
FILTER_SET: 1024

*** ChampSim Multicore Out-of-Order Simulator ***

Warmup Instructions: 50000000
Simulation Instructions: 50000000
Number of CPUs: 1
LLC sets: 2048
LLC ways: 16
Off-chip DRAM Size: 4096 MB Channels: 1 Width: 64-bit Data Rate: 3200 MT/s

CPU 0 runs /Users/brandon/Documents/CoursesWi22/CSE240C/Homework1/ChampSim/ipc1_public/server_023.champsimtrace.xz
CPU 0 L1D next line prefetcher
Heartbeat CPU 0 instructions: 10000000 cycles: 3512676 heartbeat IPC: 2.84683 cumulative IPC: 2.84683 (Simulation time: 0 hr 3 min 37 sec) 
Heartbeat CPU 0 instructions: 20000000 cycles: 7024590 heartbeat IPC: 2.84745 cumulative IPC: 2.84714 (Simulation time: 0 hr 8 min 3 sec) 
Heartbeat CPU 0 instructions: 30000001 cycles: 10529395 heartbeat IPC: 2.85323 cumulative IPC: 2.84917 (Simulation time: 0 hr 12 min 33 sec) 
Heartbeat CPU 0 instructions: 40000002 cycles: 14039877 heartbeat IPC: 2.84861 cumulative IPC: 2.84903 (Simulation time: 0 hr 16 min 51 sec) 
Heartbeat CPU 0 instructions: 50000001 cycles: 17553347 heartbeat IPC: 2.84619 cumulative IPC: 2.84846 (Simulation time: 0 hr 20 min 45 sec) 

Warmup complete CPU 0 instructions: 50000001 cycles: 17553347 (Simulation time: 0 hr 20 min 45 sec) 

Heartbeat CPU 0 instructions: 60000002 cycles: 24395123 heartbeat IPC: 1.46161 cumulative IPC: 1.46161 (Simulation time: 0 hr 25 min 34 sec) 
Heartbeat CPU 0 instructions: 70000002 cycles: 31457529 heartbeat IPC: 1.41595 cumulative IPC: 1.43842 (Simulation time: 0 hr 29 min 27 sec) 
Heartbeat CPU 0 instructions: 80000000 cycles: 38437231 heartbeat IPC: 1.43273 cumulative IPC: 1.43651 (Simulation time: 0 hr 33 min 4 sec) 
Heartbeat CPU 0 instructions: 90000000 cycles: 45429280 heartbeat IPC: 1.4302 cumulative IPC: 1.43493 (Simulation time: 0 hr 36 min 1 sec) 
Heartbeat CPU 0 instructions: 100000001 cycles: 52366949 heartbeat IPC: 1.44141 cumulative IPC: 1.43622 (Simulation time: 0 hr 38 min 36 sec) 
Finished CPU 0 instructions: 50000000 cycles: 34813602 cumulative IPC: 1.43622 (Simulation time: 0 hr 38 min 36 sec) 

ChampSim completed all CPUs

Region of Interest Statistics

CPU 0 cumulative IPC: 1.43622 instructions: 50000000 cycles: 34813602
L1D TOTAL     ACCESS:   19398052  HIT:   17931254  MISS:    1466798
L1D LOAD      ACCESS:    6870919  HIT:    6209260  MISS:     661659
L1D RFO       ACCESS:    5980866  HIT:    5719633  MISS:     261233
L1D PREFETCH  ACCESS:    6546267  HIT:    6002361  MISS:     543906
L1D WRITEBACK ACCESS:          0  HIT:          0  MISS:          0
L1D PREFETCH  REQUESTED:    6924390  ISSUED:    6803052  USEFUL:     129318  USELESS:     414596
L1D AVERAGE MISS LATENCY: 26.1881 cycles
L1I TOTAL     ACCESS:   23425379  HIT:   17956514  MISS:    5468865
L1I LOAD      ACCESS:    9514425  HIT:    9383611  MISS:     130814
L1I RFO       ACCESS:          0  HIT:          0  MISS:          0
L1I PREFETCH  ACCESS:   13910954  HIT:    8572903  MISS:    5338051
L1I WRITEBACK ACCESS:          0  HIT:          0  MISS:          0
L1I PREFETCH  REQUESTED:   14051990  ISSUED:   14014836  USEFUL:    2509359  USELESS:    2828773
L1I AVERAGE MISS LATENCY: 16.8523 cycles
L2C TOTAL     ACCESS:    9345857  HIT:    8498452  MISS:     847405
L2C LOAD      ACCESS:     667573  HIT:     505730  MISS:     161843
L2C RFO       ACCESS:     259461  HIT:     165109  MISS:      94352
L2C PREFETCH  ACCESS:    7919581  HIT:    7340602  MISS:     578979
L2C WRITEBACK ACCESS:     499242  HIT:     487011  MISS:      12231
L2C PREFETCH  REQUESTED:    4692641  ISSUED:    4683167  USEFUL:      21030  USELESS:     557330
L2C AVERAGE MISS LATENCY: 39.287 cycles
LLC TOTAL     ACCESS:    2228546  HIT:    2179137  MISS:      49409
LLC LOAD      ACCESS:     161579  HIT:     156055  MISS:       5524
LLC RFO       ACCESS:      94347  HIT:      76305  MISS:      18042
LLC PREFETCH  ACCESS:    1811541  HIT:    1785874  MISS:      25667
LLC WRITEBACK ACCESS:     161079  HIT:     160903  MISS:        176
LLC PREFETCH  REQUESTED:          0  ISSUED:          0  USEFUL:       1689  USELESS:      23157
LLC AVERAGE MISS LATENCY: 193.017 cycles
Major fault: 0 Minor fault: 2792
CPU 0 L1D next line prefetcher final stats

DRAM Statistics
 CHANNEL 0
 RQ ROW_BUFFER_HIT:      15396  ROW_BUFFER_MISS:      33830
 DBUS_CONGESTED:      32629
 WQ ROW_BUFFER_HIT:       2237  ROW_BUFFER_MISS:      19791  FULL:          0

 AVG_CONGESTED_CYCLE: 6

CPU 0 Branch Prediction Accuracy: 99.6798% MPKI: 0.58608 Average ROB Occupancy at Mispredict: 144.354

Branch types
NOT_BRANCH: 40848234 81.6965%
BRANCH_DIRECT_JUMP: 548372 1.09674%
BRANCH_INDIRECT: 189802 0.379604%
BRANCH_CONDITIONAL: 6372759 12.7455%
BRANCH_DIRECT_CALL: 862206 1.72441%
BRANCH_INDIRECT_CALL: 158147 0.316294%
BRANCH_RETURN: 1020343 2.04069%
BRANCH_OTHER: 0 0%

