Initialize SIGNATURE TABLE
ST_SET: 1
ST_WAY: 256
ST_TAG_BIT: 16
ST_TAG_MASK: ffff

Initialize PATTERN TABLE
PT_SET: 512
PT_WAY: 4
SIG_DELTA_BIT: 7
C_SIG_BIT: 4
C_DELTA_BIT: 4

Initialize PREFETCH FILTER
FILTER_SET: 1024

*** ChampSim Multicore Out-of-Order Simulator ***

Warmup Instructions: 50000000
Simulation Instructions: 50000000
Number of CPUs: 1
LLC sets: 2048
LLC ways: 16
Off-chip DRAM Size: 4096 MB Channels: 1 Width: 64-bit Data Rate: 3200 MT/s

CPU 0 runs /Users/brandon/Documents/CoursesWi22/CSE240C/Homework1/ChampSim/ipc1_public/server_020.champsimtrace.xz
CPU 0 L1D next line prefetcher
Heartbeat CPU 0 instructions: 10000003 cycles: 3622349 heartbeat IPC: 2.76064 cumulative IPC: 2.76064 (Simulation time: 0 hr 6 min 10 sec) 
Heartbeat CPU 0 instructions: 20000002 cycles: 7248524 heartbeat IPC: 2.75773 cumulative IPC: 2.75918 (Simulation time: 0 hr 14 min 0 sec) 
Heartbeat CPU 0 instructions: 30000001 cycles: 10868220 heartbeat IPC: 2.76266 cumulative IPC: 2.76034 (Simulation time: 0 hr 21 min 2 sec) 
Heartbeat CPU 0 instructions: 40000002 cycles: 14489443 heartbeat IPC: 2.7615 cumulative IPC: 2.76063 (Simulation time: 0 hr 29 min 4 sec) 
Heartbeat CPU 0 instructions: 50000001 cycles: 18124036 heartbeat IPC: 2.75134 cumulative IPC: 2.75877 (Simulation time: 0 hr 34 min 3 sec) 

Warmup complete CPU 0 instructions: 50000001 cycles: 18124036 (Simulation time: 0 hr 34 min 3 sec) 

Heartbeat CPU 0 instructions: 60000003 cycles: 36437367 heartbeat IPC: 0.54605 cumulative IPC: 0.54605 (Simulation time: 0 hr 38 min 23 sec) 
Heartbeat CPU 0 instructions: 70000001 cycles: 54791819 heartbeat IPC: 0.544827 cumulative IPC: 0.545438 (Simulation time: 0 hr 42 min 29 sec) 
Heartbeat CPU 0 instructions: 80000002 cycles: 73014304 heartbeat IPC: 0.548773 cumulative IPC: 0.546545 (Simulation time: 0 hr 47 min 24 sec) 
Heartbeat CPU 0 instructions: 90000001 cycles: 91259750 heartbeat IPC: 0.548082 cumulative IPC: 0.546928 (Simulation time: 0 hr 50 min 58 sec) 
Heartbeat CPU 0 instructions: 100000002 cycles: 109495633 heartbeat IPC: 0.548369 cumulative IPC: 0.547216 (Simulation time: 0 hr 52 min 10 sec) 
Finished CPU 0 instructions: 50000001 cycles: 91371597 cumulative IPC: 0.547216 (Simulation time: 0 hr 52 min 10 sec) 

ChampSim completed all CPUs

Region of Interest Statistics

CPU 0 cumulative IPC: 0.547216 instructions: 50000001 cycles: 91371597
L1D TOTAL     ACCESS:   18654839  HIT:   16450587  MISS:    2204252
L1D LOAD      ACCESS:    7047004  HIT:    6311474  MISS:     735530
L1D RFO       ACCESS:    5847883  HIT:    4901820  MISS:     946063
L1D PREFETCH  ACCESS:    5759952  HIT:    5237293  MISS:     522659
L1D WRITEBACK ACCESS:          0  HIT:          0  MISS:          0
L1D PREFETCH  REQUESTED:    7089407  ISSUED:    6889669  USEFUL:     183317  USELESS:     339261
L1D AVERAGE MISS LATENCY: 179.552 cycles
L1I TOTAL     ACCESS:   19533906  HIT:   15876337  MISS:    3657569
L1I LOAD      ACCESS:   10156038  HIT:   10141847  MISS:      14191
L1I RFO       ACCESS:          0  HIT:          0  MISS:          0
L1I PREFETCH  ACCESS:    9377868  HIT:    5734490  MISS:    3643378
L1I WRITEBACK ACCESS:          0  HIT:          0  MISS:          0
L1I PREFETCH  REQUESTED:    9395949  ISSUED:    9391287  USEFUL:    2663358  USELESS:     980051
L1I AVERAGE MISS LATENCY: 17.565 cycles
L2C TOTAL     ACCESS:    8480359  HIT:    6619351  MISS:    1861008
L2C LOAD      ACCESS:     501108  HIT:     233607  MISS:     267501
L2C RFO       ACCESS:     945511  HIT:      19834  MISS:     925677
L2C PREFETCH  ACCESS:    5870134  HIT:    5208068  MISS:     662066
L2C WRITEBACK ACCESS:    1163606  HIT:    1157842  MISS:       5764
L2C PREFETCH  REQUESTED:    4230111  ISSUED:    4227667  USEFUL:      20789  USELESS:     640091
L2C AVERAGE MISS LATENCY: 222.24 cycles
LLC TOTAL     ACCESS:    4066312  HIT:    2594965  MISS:    1471347
LLC LOAD      ACCESS:     267485  HIT:     162995  MISS:     104490
LLC RFO       ACCESS:     925676  HIT:     133554  MISS:     792122
LLC PREFETCH  ACCESS:    1773086  HIT:    1200509  MISS:     572577
LLC WRITEBACK ACCESS:    1100065  HIT:    1097907  MISS:       2158
LLC PREFETCH  REQUESTED:          0  ISSUED:          0  USEFUL:      30683  USELESS:     542205
LLC AVERAGE MISS LATENCY: 282.613 cycles
Major fault: 0 Minor fault: 22101
CPU 0 L1D next line prefetcher final stats

DRAM Statistics
 CHANNEL 0
 RQ ROW_BUFFER_HIT:     398316  ROW_BUFFER_MISS:    1070552
 DBUS_CONGESTED:    1432061
 WQ ROW_BUFFER_HIT:     275485  ROW_BUFFER_MISS:     621730  FULL:          0

 AVG_CONGESTED_CYCLE: 6

CPU 0 Branch Prediction Accuracy: 99.712% MPKI: 0.47638 Average ROB Occupancy at Mispredict: 215.529

Branch types
NOT_BRANCH: 41729612 83.4592%
BRANCH_DIRECT_JUMP: 458221 0.916442%
BRANCH_INDIRECT: 49088 0.098176%
BRANCH_CONDITIONAL: 5938543 11.8771%
BRANCH_DIRECT_CALL: 745133 1.49027%
BRANCH_INDIRECT_CALL: 167110 0.33422%
BRANCH_RETURN: 912224 1.82445%
BRANCH_OTHER: 0 0%

