Initialize SIGNATURE TABLE
ST_SET: 1
ST_WAY: 256
ST_TAG_BIT: 16
ST_TAG_MASK: ffff

Initialize PATTERN TABLE
PT_SET: 512
PT_WAY: 4
SIG_DELTA_BIT: 7
C_SIG_BIT: 4
C_DELTA_BIT: 4

Initialize PREFETCH FILTER
FILTER_SET: 1024

*** ChampSim Multicore Out-of-Order Simulator ***

Warmup Instructions: 50000000
Simulation Instructions: 50000000
Number of CPUs: 1
LLC sets: 2048
LLC ways: 16
Off-chip DRAM Size: 4096 MB Channels: 1 Width: 64-bit Data Rate: 3200 MT/s

CPU 0 runs /Users/brandon/Documents/CoursesWi22/CSE240C/Homework1/ChampSim/ipc1_public/server_015.champsimtrace.xz
CPU 0 L1D next line prefetcher
Heartbeat CPU 0 instructions: 10000002 cycles: 3519583 heartbeat IPC: 2.84125 cumulative IPC: 2.84125 (Simulation time: 0 hr 6 min 27 sec) 
Heartbeat CPU 0 instructions: 20000001 cycles: 7108082 heartbeat IPC: 2.78668 cumulative IPC: 2.8137 (Simulation time: 0 hr 14 min 25 sec) 
Heartbeat CPU 0 instructions: 30000001 cycles: 10647129 heartbeat IPC: 2.82562 cumulative IPC: 2.81766 (Simulation time: 0 hr 21 min 13 sec) 
Heartbeat CPU 0 instructions: 40000002 cycles: 14195170 heartbeat IPC: 2.81846 cumulative IPC: 2.81786 (Simulation time: 0 hr 29 min 13 sec) 
Heartbeat CPU 0 instructions: 50000002 cycles: 17743430 heartbeat IPC: 2.81828 cumulative IPC: 2.81794 (Simulation time: 0 hr 34 min 4 sec) 

Warmup complete CPU 0 instructions: 50000002 cycles: 17743430 (Simulation time: 0 hr 34 min 4 sec) 

Heartbeat CPU 0 instructions: 60000002 cycles: 24037768 heartbeat IPC: 1.58873 cumulative IPC: 1.58873 (Simulation time: 0 hr 37 min 36 sec) 
Heartbeat CPU 0 instructions: 70000003 cycles: 30345940 heartbeat IPC: 1.58525 cumulative IPC: 1.58699 (Simulation time: 0 hr 40 min 52 sec) 
Heartbeat CPU 0 instructions: 80000000 cycles: 36653703 heartbeat IPC: 1.58535 cumulative IPC: 1.58644 (Simulation time: 0 hr 44 min 9 sec) 
Heartbeat CPU 0 instructions: 90000000 cycles: 42964284 heartbeat IPC: 1.58464 cumulative IPC: 1.58599 (Simulation time: 0 hr 48 min 25 sec) 
Heartbeat CPU 0 instructions: 100000002 cycles: 49272330 heartbeat IPC: 1.58528 cumulative IPC: 1.58585 (Simulation time: 0 hr 50 min 58 sec) 
Finished CPU 0 instructions: 50000000 cycles: 31528900 cumulative IPC: 1.58585 (Simulation time: 0 hr 50 min 58 sec) 

ChampSim completed all CPUs

Region of Interest Statistics

CPU 0 cumulative IPC: 1.58585 instructions: 50000000 cycles: 31528900
L1D TOTAL     ACCESS:   21816064  HIT:   21799298  MISS:      16766
L1D LOAD      ACCESS:    6684874  HIT:    6684343  MISS:        531
L1D RFO       ACCESS:    8561369  HIT:    8561273  MISS:         96
L1D PREFETCH  ACCESS:    6569821  HIT:    6553682  MISS:      16139
L1D WRITEBACK ACCESS:          0  HIT:          0  MISS:          0
L1D PREFETCH  REQUESTED:    6684933  ISSUED:    6574256  USEFUL:         81  USELESS:      16056
L1D AVERAGE MISS LATENCY: 16.4028 cycles
L1I TOTAL     ACCESS:   24251044  HIT:   18130396  MISS:    6120648
L1I LOAD      ACCESS:    9906562  HIT:    9906329  MISS:        233
L1I RFO       ACCESS:          0  HIT:          0  MISS:          0
L1I PREFETCH  ACCESS:   14344482  HIT:    8224067  MISS:    6120415
L1I WRITEBACK ACCESS:          0  HIT:          0  MISS:          0
L1I PREFETCH  REQUESTED:   14344809  ISSUED:   14344670  USEFUL:    3360549  USELESS:    2759796
L1I AVERAGE MISS LATENCY: 14.2482 cycles
L2C TOTAL     ACCESS:    7931869  HIT:    7931432  MISS:        437
L2C LOAD      ACCESS:        611  HIT:        540  MISS:         71
L2C RFO       ACCESS:         94  HIT:         88  MISS:          6
L2C PREFETCH  ACCESS:    7930817  HIT:    7930460  MISS:        357
L2C WRITEBACK ACCESS:        347  HIT:        344  MISS:          3
L2C PREFETCH  REQUESTED:    3965010  ISSUED:    3964336  USEFUL:         69  USELESS:        187
L2C AVERAGE MISS LATENCY: 66.0435 cycles
LLC TOTAL     ACCESS:     930338  HIT:     928938  MISS:       1400
LLC LOAD      ACCESS:         71  HIT:         56  MISS:         15
LLC RFO       ACCESS:          6  HIT:          5  MISS:          1
LLC PREFETCH  ACCESS:     930106  HIT:     928724  MISS:       1382
LLC WRITEBACK ACCESS:        155  HIT:        153  MISS:          2
LLC PREFETCH  REQUESTED:          0  ISSUED:          0  USEFUL:         10  USELESS:        345
LLC AVERAGE MISS LATENCY: 190.134 cycles
Major fault: 0 Minor fault: 1905
CPU 0 L1D next line prefetcher final stats

DRAM Statistics
 CHANNEL 0
 RQ ROW_BUFFER_HIT:         68  ROW_BUFFER_MISS:       1330
 DBUS_CONGESTED:        341
 WQ ROW_BUFFER_HIT:         80  ROW_BUFFER_MISS:        902  FULL:          0

 AVG_CONGESTED_CYCLE: 6

CPU 0 Branch Prediction Accuracy: 99.9085% MPKI: 0.15428 Average ROB Occupancy at Mispredict: 292.195

Branch types
NOT_BRANCH: 41573155 83.1463%
BRANCH_DIRECT_JUMP: 436254 0.872508%
BRANCH_INDIRECT: 0 0%
BRANCH_CONDITIONAL: 5395897 10.7918%
BRANCH_DIRECT_CALL: 1173391 2.34678%
BRANCH_INDIRECT_CALL: 123912 0.247824%
BRANCH_RETURN: 1297311 2.59462%
BRANCH_OTHER: 0 0%

