Initialize SIGNATURE TABLE
ST_SET: 1
ST_WAY: 256
ST_TAG_BIT: 16
ST_TAG_MASK: ffff

Initialize PATTERN TABLE
PT_SET: 512
PT_WAY: 4
SIG_DELTA_BIT: 7
C_SIG_BIT: 4
C_DELTA_BIT: 4

Initialize PREFETCH FILTER
FILTER_SET: 1024

*** ChampSim Multicore Out-of-Order Simulator ***

Warmup Instructions: 50000000
Simulation Instructions: 50000000
Number of CPUs: 1
LLC sets: 2048
LLC ways: 16
Off-chip DRAM Size: 4096 MB Channels: 1 Width: 64-bit Data Rate: 3200 MT/s

CPU 0 runs /Users/brandon/Documents/CoursesWi22/CSE240C/Homework1/ChampSim/ipc1_public/server_033.champsimtrace.xz
CPU 0 L1D next line prefetcher
Heartbeat CPU 0 instructions: 10000001 cycles: 3341386 heartbeat IPC: 2.99277 cumulative IPC: 2.99277 (Simulation time: 0 hr 3 min 33 sec) 
Heartbeat CPU 0 instructions: 20000002 cycles: 6680770 heartbeat IPC: 2.99456 cumulative IPC: 2.99367 (Simulation time: 0 hr 7 min 54 sec) 
Heartbeat CPU 0 instructions: 30000001 cycles: 10010473 heartbeat IPC: 3.00327 cumulative IPC: 2.99686 (Simulation time: 0 hr 12 min 14 sec) 
Heartbeat CPU 0 instructions: 40000000 cycles: 13349119 heartbeat IPC: 2.99523 cumulative IPC: 2.99645 (Simulation time: 0 hr 16 min 14 sec) 
Heartbeat CPU 0 instructions: 50000000 cycles: 16686504 heartbeat IPC: 2.99636 cumulative IPC: 2.99643 (Simulation time: 0 hr 19 min 42 sec) 

Warmup complete CPU 0 instructions: 50000004 cycles: 16686505 (Simulation time: 0 hr 19 min 42 sec) 

Heartbeat CPU 0 instructions: 60000000 cycles: 23220112 heartbeat IPC: 1.53055 cumulative IPC: 1.53055 (Simulation time: 0 hr 24 min 24 sec) 
Heartbeat CPU 0 instructions: 70000000 cycles: 29722153 heartbeat IPC: 1.53798 cumulative IPC: 1.53425 (Simulation time: 0 hr 28 min 31 sec) 
Heartbeat CPU 0 instructions: 80000000 cycles: 37069911 heartbeat IPC: 1.36096 cumulative IPC: 1.47179 (Simulation time: 0 hr 32 min 20 sec) 
Heartbeat CPU 0 instructions: 90000003 cycles: 43688241 heartbeat IPC: 1.51096 cumulative IPC: 1.48139 (Simulation time: 0 hr 35 min 40 sec) 
Heartbeat CPU 0 instructions: 100000003 cycles: 50234578 heartbeat IPC: 1.52757 cumulative IPC: 1.4904 (Simulation time: 0 hr 38 min 22 sec) 
Finished CPU 0 instructions: 50000003 cycles: 33548074 cumulative IPC: 1.4904 (Simulation time: 0 hr 38 min 22 sec) 

ChampSim completed all CPUs

Region of Interest Statistics

CPU 0 cumulative IPC: 1.4904 instructions: 50000003 cycles: 33548074
L1D TOTAL     ACCESS:   18232167  HIT:   16749894  MISS:    1482273
L1D LOAD      ACCESS:    6142117  HIT:    5458792  MISS:     683325
L1D RFO       ACCESS:    6161495  HIT:    6012057  MISS:     149438
L1D PREFETCH  ACCESS:    5928555  HIT:    5279045  MISS:     649510
L1D WRITEBACK ACCESS:          0  HIT:          0  MISS:          0
L1D PREFETCH  REQUESTED:    6184470  ISSUED:    6064650  USEFUL:     141265  USELESS:     508252
L1D AVERAGE MISS LATENCY: 24.0554 cycles
L1I TOTAL     ACCESS:   21999695  HIT:   16266667  MISS:    5733028
L1I LOAD      ACCESS:    9779628  HIT:    9769571  MISS:      10057
L1I RFO       ACCESS:          0  HIT:          0  MISS:          0
L1I PREFETCH  ACCESS:   12220067  HIT:    6497096  MISS:    5722971
L1I WRITEBACK ACCESS:          0  HIT:          0  MISS:          0
L1I PREFETCH  REQUESTED:   12249446  ISSUED:   12226779  USEFUL:    3498310  USELESS:    2224626
L1I AVERAGE MISS LATENCY: 14.9006 cycles
L2C TOTAL     ACCESS:    9517102  HIT:    9197329  MISS:     319773
L2C LOAD      ACCESS:     682043  HIT:     558488  MISS:     123555
L2C RFO       ACCESS:     147940  HIT:     125567  MISS:      22373
L2C PREFETCH  ACCESS:    8320841  HIT:    8151308  MISS:     169533
L2C WRITEBACK ACCESS:     366278  HIT:     361966  MISS:       4312
L2C PREFETCH  REQUESTED:    5005452  ISSUED:    4999521  USEFUL:       8821  USELESS:     160411
L2C AVERAGE MISS LATENCY: 48.5519 cycles
LLC TOTAL     ACCESS:    1691461  HIT:    1637758  MISS:      53703
LLC LOAD      ACCESS:     123539  HIT:     109600  MISS:      13939
LLC RFO       ACCESS:      22372  HIT:      18958  MISS:       3414
LLC PREFETCH  ACCESS:    1437407  HIT:    1401313  MISS:      36094
LLC WRITEBACK ACCESS:     108143  HIT:     107887  MISS:        256
LLC PREFETCH  REQUESTED:          0  ISSUED:          0  USEFUL:       4727  USELESS:      30909
LLC AVERAGE MISS LATENCY: 174.501 cycles
Major fault: 0 Minor fault: 2495
CPU 0 L1D next line prefetcher final stats

DRAM Statistics
 CHANNEL 0
 RQ ROW_BUFFER_HIT:       7451  ROW_BUFFER_MISS:      45995
 DBUS_CONGESTED:      19780
 WQ ROW_BUFFER_HIT:       3481  ROW_BUFFER_MISS:      15529  FULL:          0

 AVG_CONGESTED_CYCLE: 5

CPU 0 Branch Prediction Accuracy: 99.9029% MPKI: 0.19006 Average ROB Occupancy at Mispredict: 252.283

Branch types
NOT_BRANCH: 40217109 80.4342%
BRANCH_DIRECT_JUMP: 774599 1.5492%
BRANCH_INDIRECT: 108806 0.217612%
BRANCH_CONDITIONAL: 6379332 12.7587%
BRANCH_DIRECT_CALL: 1048809 2.09762%
BRANCH_INDIRECT_CALL: 211109 0.422218%
BRANCH_RETURN: 1259925 2.51985%
BRANCH_OTHER: 0 0%

