Initialize SIGNATURE TABLE
ST_SET: 1
ST_WAY: 256
ST_TAG_BIT: 16
ST_TAG_MASK: ffff

Initialize PATTERN TABLE
PT_SET: 512
PT_WAY: 4
SIG_DELTA_BIT: 7
C_SIG_BIT: 4
C_DELTA_BIT: 4

Initialize PREFETCH FILTER
FILTER_SET: 1024

*** ChampSim Multicore Out-of-Order Simulator ***

Warmup Instructions: 50000000
Simulation Instructions: 50000000
Number of CPUs: 1
LLC sets: 2048
LLC ways: 16
Off-chip DRAM Size: 4096 MB Channels: 1 Width: 64-bit Data Rate: 3200 MT/s

CPU 0 runs /Users/brandon/Documents/CoursesWi22/CSE240C/Homework1/ChampSim/ipc1_public/server_019.champsimtrace.xz
CPU 0 L1D next line prefetcher
Heartbeat CPU 0 instructions: 10000002 cycles: 3623381 heartbeat IPC: 2.75985 cumulative IPC: 2.75985 (Simulation time: 0 hr 6 min 16 sec) 
Heartbeat CPU 0 instructions: 20000003 cycles: 7248094 heartbeat IPC: 2.75884 cumulative IPC: 2.75935 (Simulation time: 0 hr 14 min 26 sec) 
Heartbeat CPU 0 instructions: 30000002 cycles: 10872035 heartbeat IPC: 2.75943 cumulative IPC: 2.75937 (Simulation time: 0 hr 21 min 17 sec) 
Heartbeat CPU 0 instructions: 40000002 cycles: 14507667 heartbeat IPC: 2.75055 cumulative IPC: 2.75716 (Simulation time: 0 hr 29 min 21 sec) 
Heartbeat CPU 0 instructions: 50000001 cycles: 18131727 heartbeat IPC: 2.75934 cumulative IPC: 2.7576 (Simulation time: 0 hr 34 min 16 sec) 

Warmup complete CPU 0 instructions: 50000001 cycles: 18131727 (Simulation time: 0 hr 34 min 16 sec) 

Heartbeat CPU 0 instructions: 60000000 cycles: 38567696 heartbeat IPC: 0.489333 cumulative IPC: 0.489333 (Simulation time: 0 hr 38 min 42 sec) 
Heartbeat CPU 0 instructions: 70000002 cycles: 62617449 heartbeat IPC: 0.415805 cumulative IPC: 0.449582 (Simulation time: 0 hr 42 min 32 sec) 
Heartbeat CPU 0 instructions: 80000001 cycles: 83736404 heartbeat IPC: 0.473508 cumulative IPC: 0.457284 (Simulation time: 0 hr 46 min 58 sec) 
Heartbeat CPU 0 instructions: 90000002 cycles: 102061068 heartbeat IPC: 0.545713 cumulative IPC: 0.476591 (Simulation time: 0 hr 50 min 42 sec) 
Heartbeat CPU 0 instructions: 100000002 cycles: 120306374 heartbeat IPC: 0.548086 cumulative IPC: 0.489358 (Simulation time: 0 hr 52 min 3 sec) 
Finished CPU 0 instructions: 50000001 cycles: 102174647 cumulative IPC: 0.489358 (Simulation time: 0 hr 52 min 3 sec) 

ChampSim completed all CPUs

Region of Interest Statistics

CPU 0 cumulative IPC: 0.489358 instructions: 50000001 cycles: 102174647
L1D TOTAL     ACCESS:   18318732  HIT:   16095036  MISS:    2223696
L1D LOAD      ACCESS:    6974756  HIT:    6209406  MISS:     765350
L1D RFO       ACCESS:    5546190  HIT:    4644085  MISS:     902105
L1D PREFETCH  ACCESS:    5797786  HIT:    5241545  MISS:     556241
L1D WRITEBACK ACCESS:          0  HIT:          0  MISS:          0
L1D PREFETCH  REQUESTED:    7012360  ISSUED:    6827676  USEFUL:     187034  USELESS:     369115
L1D AVERAGE MISS LATENCY: 189.171 cycles
L1I TOTAL     ACCESS:   18822290  HIT:   15438927  MISS:    3383363
L1I LOAD      ACCESS:    9904996  HIT:    9891495  MISS:      13501
L1I RFO       ACCESS:          0  HIT:          0  MISS:          0
L1I PREFETCH  ACCESS:    8917294  HIT:    5547432  MISS:    3369862
L1I WRITEBACK ACCESS:          0  HIT:          0  MISS:          0
L1I PREFETCH  REQUESTED:    8933794  ISSUED:    8929648  USEFUL:    2412514  USELESS:     957297
L1I AVERAGE MISS LATENCY: 17.9352 cycles
L2C TOTAL     ACCESS:    8152203  HIT:    6252640  MISS:    1899563
L2C LOAD      ACCESS:     559925  HIT:     225620  MISS:     334305
L2C RFO       ACCESS:     901501  HIT:      18095  MISS:     883406
L2C PREFETCH  ACCESS:    5516105  HIT:    4837328  MISS:     678777
L2C WRITEBACK ACCESS:    1174672  HIT:    1171597  MISS:       3075
L2C PREFETCH  REQUESTED:    4151826  ISSUED:    4148943  USEFUL:      20928  USELESS:     656482
L2C AVERAGE MISS LATENCY: 227.703 cycles
LLC TOTAL     ACCESS:    4180523  HIT:    2577306  MISS:    1603217
LLC LOAD      ACCESS:     334293  HIT:     166241  MISS:     168052
LLC RFO       ACCESS:     883404  HIT:     114562  MISS:     768842
LLC PREFETCH  ACCESS:    1851009  HIT:    1186680  MISS:     664329
LLC WRITEBACK ACCESS:    1111817  HIT:    1109823  MISS:       1994
LLC PREFETCH  REQUESTED:          0  ISSUED:          0  USEFUL:      49627  USELESS:     613872
LLC AVERAGE MISS LATENCY: 277.911 cycles
Major fault: 0 Minor fault: 25703
CPU 0 L1D next line prefetcher final stats

DRAM Statistics
 CHANNEL 0
 RQ ROW_BUFFER_HIT:     380690  ROW_BUFFER_MISS:    1220330
 DBUS_CONGESTED:    1554862
 WQ ROW_BUFFER_HIT:     283672  ROW_BUFFER_MISS:     654614  FULL:          0

 AVG_CONGESTED_CYCLE: 6

CPU 0 Branch Prediction Accuracy: 99.2186% MPKI: 1.32192 Average ROB Occupancy at Mispredict: 179.883

Branch types
NOT_BRANCH: 41540785 83.0816%
BRANCH_DIRECT_JUMP: 462384 0.924768%
BRANCH_INDIRECT: 45460 0.09092%
BRANCH_CONDITIONAL: 6209281 12.4186%
BRANCH_DIRECT_CALL: 666241 1.33248%
BRANCH_INDIRECT_CALL: 204728 0.409456%
BRANCH_RETURN: 870978 1.74196%
BRANCH_OTHER: 0 0%

