Initialize SIGNATURE TABLE
ST_SET: 1
ST_WAY: 256
ST_TAG_BIT: 16
ST_TAG_MASK: ffff

Initialize PATTERN TABLE
PT_SET: 512
PT_WAY: 4
SIG_DELTA_BIT: 7
C_SIG_BIT: 4
C_DELTA_BIT: 4

Initialize PREFETCH FILTER
FILTER_SET: 1024

*** ChampSim Multicore Out-of-Order Simulator ***

Warmup Instructions: 50000000
Simulation Instructions: 50000000
Number of CPUs: 1
LLC sets: 2048
LLC ways: 16
Off-chip DRAM Size: 4096 MB Channels: 1 Width: 64-bit Data Rate: 3200 MT/s

CPU 0 runs /Users/brandon/Documents/CoursesWi22/CSE240C/Homework1/ChampSim/ipc1_public/server_013.champsimtrace.xz
CPU 0 L1D next line prefetcher
Heartbeat CPU 0 instructions: 10000000 cycles: 3216461 heartbeat IPC: 3.10901 cumulative IPC: 3.10901 (Simulation time: 0 hr 6 min 14 sec) 
Heartbeat CPU 0 instructions: 20000001 cycles: 6422571 heartbeat IPC: 3.11904 cumulative IPC: 3.11402 (Simulation time: 0 hr 13 min 56 sec) 
Heartbeat CPU 0 instructions: 30000002 cycles: 9631745 heartbeat IPC: 3.11607 cumulative IPC: 3.1147 (Simulation time: 0 hr 20 min 47 sec) 
Heartbeat CPU 0 instructions: 40000002 cycles: 12836607 heartbeat IPC: 3.12026 cumulative IPC: 3.11609 (Simulation time: 0 hr 28 min 39 sec) 
Heartbeat CPU 0 instructions: 50000000 cycles: 16041850 heartbeat IPC: 3.11989 cumulative IPC: 3.11685 (Simulation time: 0 hr 33 min 35 sec) 

Warmup complete CPU 0 instructions: 50000004 cycles: 16041851 (Simulation time: 0 hr 33 min 35 sec) 

Heartbeat CPU 0 instructions: 60000000 cycles: 23786705 heartbeat IPC: 1.29118 cumulative IPC: 1.29118 (Simulation time: 0 hr 36 min 47 sec) 
Heartbeat CPU 0 instructions: 70000002 cycles: 31684066 heartbeat IPC: 1.26625 cumulative IPC: 1.27859 (Simulation time: 0 hr 39 min 41 sec) 
Heartbeat CPU 0 instructions: 80000003 cycles: 39025454 heartbeat IPC: 1.36214 cumulative IPC: 1.30528 (Simulation time: 0 hr 42 min 36 sec) 
Heartbeat CPU 0 instructions: 90000003 cycles: 46564185 heartbeat IPC: 1.32648 cumulative IPC: 1.31052 (Simulation time: 0 hr 46 min 3 sec) 
Heartbeat CPU 0 instructions: 100000003 cycles: 54085588 heartbeat IPC: 1.32954 cumulative IPC: 1.31428 (Simulation time: 0 hr 49 min 14 sec) 
Finished CPU 0 instructions: 50000003 cycles: 38043738 cumulative IPC: 1.31428 (Simulation time: 0 hr 49 min 14 sec) 

ChampSim completed all CPUs

Region of Interest Statistics

CPU 0 cumulative IPC: 1.31428 instructions: 50000003 cycles: 38043738
L1D TOTAL     ACCESS:   17392656  HIT:   16326223  MISS:    1066433
L1D LOAD      ACCESS:    6351675  HIT:    5850236  MISS:     501439
L1D RFO       ACCESS:    4931327  HIT:    4851012  MISS:      80315
L1D PREFETCH  ACCESS:    6109654  HIT:    5624975  MISS:     484679
L1D WRITEBACK ACCESS:          0  HIT:          0  MISS:          0
L1D PREFETCH  REQUESTED:    6387115  ISSUED:    6292790  USEFUL:     133148  USELESS:     351540
L1D AVERAGE MISS LATENCY: 44.4511 cycles
L1I TOTAL     ACCESS:   19336902  HIT:   16105827  MISS:    3231075
L1I LOAD      ACCESS:    8781766  HIT:    8641010  MISS:     140756
L1I RFO       ACCESS:          0  HIT:          0  MISS:          0
L1I PREFETCH  ACCESS:   10555136  HIT:    7464817  MISS:    3090319
L1I WRITEBACK ACCESS:          0  HIT:          0  MISS:          0
L1I PREFETCH  REQUESTED:   10684504  ISSUED:   10671042  USEFUL:    1541061  USELESS:    1549226
L1I AVERAGE MISS LATENCY: 25.9956 cycles
L2C TOTAL     ACCESS:    5724400  HIT:    4230724  MISS:    1493676
L2C LOAD      ACCESS:     530849  HIT:     231690  MISS:     299159
L2C RFO       ACCESS:      78867  HIT:      29193  MISS:      49674
L2C PREFETCH  ACCESS:    4838906  HIT:    3696929  MISS:    1141977
L2C WRITEBACK ACCESS:     275778  HIT:     272912  MISS:       2866
L2C PREFETCH  REQUESTED:    3953032  ISSUED:    3946417  USEFUL:      29231  USELESS:    1112455
L2C AVERAGE MISS LATENCY: 47.2721 cycles
LLC TOTAL     ACCESS:    2873010  HIT:    2678728  MISS:     194282
LLC LOAD      ACCESS:     299061  HIT:     273898  MISS:      25163
LLC RFO       ACCESS:      49672  HIT:      38455  MISS:      11217
LLC PREFETCH  ACCESS:    2342845  HIT:    2185183  MISS:     157662
LLC WRITEBACK ACCESS:     181432  HIT:     181192  MISS:        240
LLC PREFETCH  REQUESTED:          0  ISSUED:          0  USEFUL:      12619  USELESS:     143890
LLC AVERAGE MISS LATENCY: 179.436 cycles
Major fault: 0 Minor fault: 6244
CPU 0 L1D next line prefetcher final stats

DRAM Statistics
 CHANNEL 0
 RQ ROW_BUFFER_HIT:      30617  ROW_BUFFER_MISS:     163386
 DBUS_CONGESTED:      79958
 WQ ROW_BUFFER_HIT:      12614  ROW_BUFFER_MISS:      53443  FULL:          0

 AVG_CONGESTED_CYCLE: 5

CPU 0 Branch Prediction Accuracy: 99.4114% MPKI: 1.0933 Average ROB Occupancy at Mispredict: 120.116

Branch types
NOT_BRANCH: 40713275 81.4265%
BRANCH_DIRECT_JUMP: 463701 0.927402%
BRANCH_INDIRECT: 146544 0.293088%
BRANCH_CONDITIONAL: 6981956 13.9639%
BRANCH_DIRECT_CALL: 665005 1.33001%
BRANCH_INDIRECT_CALL: 165152 0.330304%
BRANCH_RETURN: 864314 1.72863%
BRANCH_OTHER: 0 0%

