Initialize SIGNATURE TABLE
ST_SET: 1
ST_WAY: 256
ST_TAG_BIT: 16
ST_TAG_MASK: ffff

Initialize PATTERN TABLE
PT_SET: 512
PT_WAY: 4
SIG_DELTA_BIT: 7
C_SIG_BIT: 4
C_DELTA_BIT: 4

Initialize PREFETCH FILTER
FILTER_SET: 1024

*** ChampSim Multicore Out-of-Order Simulator ***

Warmup Instructions: 50000000
Simulation Instructions: 50000000
Number of CPUs: 1
LLC sets: 2048
LLC ways: 16
Off-chip DRAM Size: 4096 MB Channels: 1 Width: 64-bit Data Rate: 3200 MT/s

CPU 0 runs /Users/brandon/Documents/CoursesWi22/CSE240C/Homework1/ChampSim/ipc1_public/server_002.champsimtrace.xz
CPU 0 L1D next line prefetcher
Heartbeat CPU 0 instructions: 10000000 cycles: 3581372 heartbeat IPC: 2.79223 cumulative IPC: 2.79223 (Simulation time: 0 hr 6 min 6 sec) 
Heartbeat CPU 0 instructions: 20000002 cycles: 7171059 heartbeat IPC: 2.78576 cumulative IPC: 2.78899 (Simulation time: 0 hr 14 min 8 sec) 
Heartbeat CPU 0 instructions: 30000000 cycles: 10711838 heartbeat IPC: 2.82424 cumulative IPC: 2.80064 (Simulation time: 0 hr 21 min 5 sec) 
Heartbeat CPU 0 instructions: 40000000 cycles: 14262083 heartbeat IPC: 2.81671 cumulative IPC: 2.80464 (Simulation time: 0 hr 29 min 8 sec) 
Heartbeat CPU 0 instructions: 50000001 cycles: 17809854 heartbeat IPC: 2.81867 cumulative IPC: 2.80743 (Simulation time: 0 hr 34 min 1 sec) 

Warmup complete CPU 0 instructions: 50000001 cycles: 17809854 (Simulation time: 0 hr 34 min 1 sec) 

Heartbeat CPU 0 instructions: 60000000 cycles: 24247209 heartbeat IPC: 1.55343 cumulative IPC: 1.55343 (Simulation time: 0 hr 37 min 31 sec) 
Heartbeat CPU 0 instructions: 70000003 cycles: 30683906 heartbeat IPC: 1.55359 cumulative IPC: 1.55351 (Simulation time: 0 hr 40 min 44 sec) 
Heartbeat CPU 0 instructions: 80000003 cycles: 37123336 heartbeat IPC: 1.55293 cumulative IPC: 1.55332 (Simulation time: 0 hr 44 min 0 sec) 
Heartbeat CPU 0 instructions: 90000002 cycles: 43561121 heartbeat IPC: 1.55333 cumulative IPC: 1.55332 (Simulation time: 0 hr 48 min 12 sec) 
Heartbeat CPU 0 instructions: 100000003 cycles: 49997077 heartbeat IPC: 1.55377 cumulative IPC: 1.55341 (Simulation time: 0 hr 50 min 51 sec) 
Finished CPU 0 instructions: 50000002 cycles: 32187223 cumulative IPC: 1.55341 (Simulation time: 0 hr 50 min 51 sec) 

ChampSim completed all CPUs

Region of Interest Statistics

CPU 0 cumulative IPC: 1.55341 instructions: 50000002 cycles: 32187223
L1D TOTAL     ACCESS:   21521483  HIT:   21520675  MISS:        808
L1D LOAD      ACCESS:    6600378  HIT:    6600002  MISS:        376
L1D RFO       ACCESS:    8433001  HIT:    8432888  MISS:        113
L1D PREFETCH  ACCESS:    6488104  HIT:    6487785  MISS:        319
L1D WRITEBACK ACCESS:          0  HIT:          0  MISS:          0
L1D PREFETCH  REQUESTED:    6600429  ISSUED:    6495496  USEFUL:         90  USELESS:        230
L1D AVERAGE MISS LATENCY: 32.8663 cycles
L1I TOTAL     ACCESS:   24877911  HIT:   18752500  MISS:    6125411
L1I LOAD      ACCESS:   10030289  HIT:   10029996  MISS:        293
L1I RFO       ACCESS:          0  HIT:          0  MISS:          0
L1I PREFETCH  ACCESS:   14847622  HIT:    8722504  MISS:    6125118
L1I WRITEBACK ACCESS:          0  HIT:          0  MISS:          0
L1I PREFETCH  REQUESTED:   14851673  ISSUED:   14847817  USEFUL:    2994423  USELESS:    3130656
L1I AVERAGE MISS LATENCY: 14.2666 cycles
L2C TOTAL     ACCESS:    7650240  HIT:    7649839  MISS:        401
L2C LOAD      ACCESS:        510  HIT:        441  MISS:         69
L2C RFO       ACCESS:        112  HIT:        110  MISS:          2
L2C PREFETCH  ACCESS:    7649283  HIT:    7648953  MISS:        330
L2C WRITEBACK ACCESS:        335  HIT:        335  MISS:          0
L2C PREFETCH  REQUESTED:    3099268  ISSUED:    3099213  USEFUL:         58  USELESS:        185
L2C AVERAGE MISS LATENCY: 63.4239 cycles
LLC TOTAL     ACCESS:     831618  HIT:     830760  MISS:        858
LLC LOAD      ACCESS:         69  HIT:         57  MISS:         12
LLC RFO       ACCESS:          2  HIT:          0  MISS:          2
LLC PREFETCH  ACCESS:     831419  HIT:     830576  MISS:        843
LLC WRITEBACK ACCESS:        128  HIT:        127  MISS:          1
LLC PREFETCH  REQUESTED:          0  ISSUED:          0  USEFUL:         10  USELESS:        260
LLC AVERAGE MISS LATENCY: 176.465 cycles
Major fault: 0 Minor fault: 1885
CPU 0 L1D next line prefetcher final stats

DRAM Statistics
 CHANNEL 0
 RQ ROW_BUFFER_HIT:         35  ROW_BUFFER_MISS:        822
 DBUS_CONGESTED:        134
 WQ ROW_BUFFER_HIT:         43  ROW_BUFFER_MISS:        504  FULL:          0

 AVG_CONGESTED_CYCLE: 5

CPU 0 Branch Prediction Accuracy: 99.8789% MPKI: 0.20388 Average ROB Occupancy at Mispredict: 258.518

Branch types
NOT_BRANCH: 41580695 83.1614%
BRANCH_DIRECT_JUMP: 461630 0.92326%
BRANCH_INDIRECT: 0 0%
BRANCH_CONDITIONAL: 5376437 10.7529%
BRANCH_DIRECT_CALL: 1175775 2.35155%
BRANCH_INDIRECT_CALL: 114840 0.22968%
BRANCH_RETURN: 1290625 2.58125%
BRANCH_OTHER: 0 0%

