Initialize SIGNATURE TABLE
ST_SET: 1
ST_WAY: 256
ST_TAG_BIT: 16
ST_TAG_MASK: ffff

Initialize PATTERN TABLE
PT_SET: 512
PT_WAY: 4
SIG_DELTA_BIT: 7
C_SIG_BIT: 4
C_DELTA_BIT: 4

Initialize PREFETCH FILTER
FILTER_SET: 1024

*** ChampSim Multicore Out-of-Order Simulator ***

Warmup Instructions: 50000000
Simulation Instructions: 50000000
Number of CPUs: 1
LLC sets: 2048
LLC ways: 16
Off-chip DRAM Size: 4096 MB Channels: 1 Width: 64-bit Data Rate: 3200 MT/s

CPU 0 runs /Users/brandon/Documents/CoursesWi22/CSE240C/Homework1/ChampSim/ipc1_public/server_039.champsimtrace.xz
CPU 0 L1D next line prefetcher
Heartbeat CPU 0 instructions: 10000003 cycles: 3451609 heartbeat IPC: 2.8972 cumulative IPC: 2.8972 (Simulation time: 0 hr 3 min 23 sec) 
Heartbeat CPU 0 instructions: 20000002 cycles: 6896177 heartbeat IPC: 2.90312 cumulative IPC: 2.90016 (Simulation time: 0 hr 7 min 17 sec) 
Heartbeat CPU 0 instructions: 30000001 cycles: 10342582 heartbeat IPC: 2.90157 cumulative IPC: 2.90063 (Simulation time: 0 hr 11 min 32 sec) 
Heartbeat CPU 0 instructions: 40000002 cycles: 13784342 heartbeat IPC: 2.90549 cumulative IPC: 2.90184 (Simulation time: 0 hr 15 min 34 sec) 
Heartbeat CPU 0 instructions: 50000001 cycles: 17225463 heartbeat IPC: 2.90603 cumulative IPC: 2.90268 (Simulation time: 0 hr 19 min 11 sec) 

Warmup complete CPU 0 instructions: 50000001 cycles: 17225463 (Simulation time: 0 hr 19 min 11 sec) 

Heartbeat CPU 0 instructions: 60000000 cycles: 23000687 heartbeat IPC: 1.73153 cumulative IPC: 1.73153 (Simulation time: 0 hr 23 min 24 sec) 
Heartbeat CPU 0 instructions: 70000000 cycles: 28774544 heartbeat IPC: 1.73194 cumulative IPC: 1.73174 (Simulation time: 0 hr 27 min 32 sec) 
Heartbeat CPU 0 instructions: 80000000 cycles: 34544768 heartbeat IPC: 1.73303 cumulative IPC: 1.73217 (Simulation time: 0 hr 31 min 8 sec) 
Heartbeat CPU 0 instructions: 90000001 cycles: 40317552 heartbeat IPC: 1.73227 cumulative IPC: 1.73219 (Simulation time: 0 hr 34 min 27 sec) 
Heartbeat CPU 0 instructions: 100000002 cycles: 46097148 heartbeat IPC: 1.73022 cumulative IPC: 1.7318 (Simulation time: 0 hr 37 min 16 sec) 
Finished CPU 0 instructions: 50000001 cycles: 28871685 cumulative IPC: 1.7318 (Simulation time: 0 hr 37 min 16 sec) 

ChampSim completed all CPUs

Region of Interest Statistics

CPU 0 cumulative IPC: 1.7318 instructions: 50000001 cycles: 28871685
L1D TOTAL     ACCESS:   19878407  HIT:   19383681  MISS:     494726
L1D LOAD      ACCESS:    6487542  HIT:    6265903  MISS:     221639
L1D RFO       ACCESS:    7089691  HIT:    7022741  MISS:      66950
L1D PREFETCH  ACCESS:    6301174  HIT:    6095037  MISS:     206137
L1D WRITEBACK ACCESS:          0  HIT:          0  MISS:          0
L1D PREFETCH  REQUESTED:    6503401  ISSUED:    6371055  USEFUL:      50006  USELESS:     156135
L1D AVERAGE MISS LATENCY: 15.0621 cycles
L1I TOTAL     ACCESS:   21560864  HIT:   15248420  MISS:    6312444
L1I LOAD      ACCESS:    9449119  HIT:    9448519  MISS:        600
L1I RFO       ACCESS:          0  HIT:          0  MISS:          0
L1I PREFETCH  ACCESS:   12111745  HIT:    5799901  MISS:    6311844
L1I WRITEBACK ACCESS:          0  HIT:          0  MISS:          0
L1I PREFETCH  REQUESTED:   12119347  ISSUED:   12112149  USEFUL:    4308107  USELESS:    2003729
L1I AVERAGE MISS LATENCY: 14.3497 cycles
L2C TOTAL     ACCESS:    9481987  HIT:    9481929  MISS:         58
L2C LOAD      ACCESS:     217370  HIT:     217369  MISS:          1
L2C RFO       ACCESS:      66752  HIT:      66752  MISS:          0
L2C PREFETCH  ACCESS:    9017801  HIT:    9017745  MISS:         56
L2C WRITEBACK ACCESS:     180064  HIT:     180063  MISS:          1
L2C PREFETCH  REQUESTED:    4395413  ISSUED:    4395259  USEFUL:         10  USELESS:          5
L2C AVERAGE MISS LATENCY: 33.6552 cycles
LLC TOTAL     ACCESS:     382852  HIT:     382090  MISS:        762
LLC LOAD      ACCESS:          1  HIT:          1  MISS:          0
LLC RFO       ACCESS:          0  HIT:          0  MISS:          0
LLC PREFETCH  ACCESS:     382851  HIT:     382089  MISS:        762
LLC WRITEBACK ACCESS:          0  HIT:          0  MISS:          0
LLC PREFETCH  REQUESTED:          0  ISSUED:          0  USEFUL:          0  USELESS:          0
LLC AVERAGE MISS LATENCY: 167.139 cycles
Major fault: 0 Minor fault: 362
CPU 0 L1D next line prefetcher final stats

DRAM Statistics
 CHANNEL 0
 RQ ROW_BUFFER_HIT:         41  ROW_BUFFER_MISS:        721
 DBUS_CONGESTED:         15
 WQ ROW_BUFFER_HIT:          0  ROW_BUFFER_MISS:          0  FULL:          0

 AVG_CONGESTED_CYCLE: 5

CPU 0 Branch Prediction Accuracy: 99.9091% MPKI: 0.1547 Average ROB Occupancy at Mispredict: 295.727

Branch types
NOT_BRANCH: 41495021 82.99%
BRANCH_DIRECT_JUMP: 491309 0.982618%
BRANCH_INDIRECT: 0 0%
BRANCH_CONDITIONAL: 5595263 11.1905%
BRANCH_DIRECT_CALL: 1028408 2.05682%
BRANCH_INDIRECT_CALL: 180756 0.361512%
BRANCH_RETURN: 1209170 2.41834%
BRANCH_OTHER: 0 0%

