Initialize SIGNATURE TABLE
ST_SET: 1
ST_WAY: 256
ST_TAG_BIT: 16
ST_TAG_MASK: ffff

Initialize PATTERN TABLE
PT_SET: 512
PT_WAY: 4
SIG_DELTA_BIT: 7
C_SIG_BIT: 4
C_DELTA_BIT: 4

Initialize PREFETCH FILTER
FILTER_SET: 1024

*** ChampSim Multicore Out-of-Order Simulator ***

Warmup Instructions: 50000000
Simulation Instructions: 50000000
Number of CPUs: 1
LLC sets: 2048
LLC ways: 16
Off-chip DRAM Size: 4096 MB Channels: 1 Width: 64-bit Data Rate: 3200 MT/s

CPU 0 runs /Users/brandon/Documents/CoursesWi22/CSE240C/Homework1/ChampSim/ipc1_public/server_028.champsimtrace.xz
CPU 0 L1D next line prefetcher
Heartbeat CPU 0 instructions: 10000001 cycles: 3508032 heartbeat IPC: 2.8506 cumulative IPC: 2.8506 (Simulation time: 0 hr 3 min 32 sec) 
Heartbeat CPU 0 instructions: 20000002 cycles: 7016028 heartbeat IPC: 2.85063 cumulative IPC: 2.85062 (Simulation time: 0 hr 7 min 50 sec) 
Heartbeat CPU 0 instructions: 30000001 cycles: 10521497 heartbeat IPC: 2.85268 cumulative IPC: 2.85131 (Simulation time: 0 hr 12 min 20 sec) 
Heartbeat CPU 0 instructions: 40000002 cycles: 14033722 heartbeat IPC: 2.8472 cumulative IPC: 2.85028 (Simulation time: 0 hr 16 min 33 sec) 
Heartbeat CPU 0 instructions: 50000001 cycles: 17541066 heartbeat IPC: 2.85116 cumulative IPC: 2.85045 (Simulation time: 0 hr 20 min 26 sec) 

Warmup complete CPU 0 instructions: 50000001 cycles: 17541066 (Simulation time: 0 hr 20 min 26 sec) 

Heartbeat CPU 0 instructions: 60000000 cycles: 25089073 heartbeat IPC: 1.32485 cumulative IPC: 1.32485 (Simulation time: 0 hr 25 min 24 sec) 
Heartbeat CPU 0 instructions: 70000000 cycles: 32647291 heartbeat IPC: 1.32306 cumulative IPC: 1.32396 (Simulation time: 0 hr 29 min 34 sec) 
Heartbeat CPU 0 instructions: 80000000 cycles: 40194138 heartbeat IPC: 1.32506 cumulative IPC: 1.32432 (Simulation time: 0 hr 33 min 30 sec) 
*** Reached end of trace for Core: 0 Repeating trace: /Users/brandon/Documents/CoursesWi22/CSE240C/Homework1/ChampSim/ipc1_public/server_028.champsimtrace.xz
Heartbeat CPU 0 instructions: 90000000 cycles: 47715154 heartbeat IPC: 1.32961 cumulative IPC: 1.32564 (Simulation time: 0 hr 36 min 52 sec) 
Heartbeat CPU 0 instructions: 100000003 cycles: 55210319 heartbeat IPC: 1.33419 cumulative IPC: 1.32734 (Simulation time: 0 hr 39 min 16 sec) 
Finished CPU 0 instructions: 50000002 cycles: 37669253 cumulative IPC: 1.32734 (Simulation time: 0 hr 39 min 16 sec) 

ChampSim completed all CPUs

Region of Interest Statistics

CPU 0 cumulative IPC: 1.32734 instructions: 50000002 cycles: 37669253
L1D TOTAL     ACCESS:   19037251  HIT:   16964119  MISS:    2073132
L1D LOAD      ACCESS:    6722251  HIT:    5674861  MISS:    1047390
L1D RFO       ACCESS:    6100123  HIT:    5816867  MISS:     283256
L1D PREFETCH  ACCESS:    6214877  HIT:    5472391  MISS:     742486
L1D WRITEBACK ACCESS:          0  HIT:          0  MISS:          0
L1D PREFETCH  REQUESTED:    6783087  ISSUED:    6673741  USEFUL:     176078  USELESS:     566410
L1D AVERAGE MISS LATENCY: 23.0818 cycles
L1I TOTAL     ACCESS:   24142271  HIT:   18256328  MISS:    5885943
L1I LOAD      ACCESS:    9870914  HIT:    9823573  MISS:      47341
L1I RFO       ACCESS:          0  HIT:          0  MISS:          0
L1I PREFETCH  ACCESS:   14271357  HIT:    8432755  MISS:    5838602
L1I WRITEBACK ACCESS:          0  HIT:          0  MISS:          0
L1I PREFETCH  REQUESTED:   14326581  ISSUED:   14307382  USEFUL:    3072352  USELESS:    2766249
L1I AVERAGE MISS LATENCY: 17.0754 cycles
L2C TOTAL     ACCESS:   10906774  HIT:    9948756  MISS:     958018
L2C LOAD      ACCESS:     923630  HIT:     723072  MISS:     200558
L2C RFO       ACCESS:     281633  HIT:     211535  MISS:      70098
L2C PREFETCH  ACCESS:    9096606  HIT:    8415808  MISS:     680798
L2C WRITEBACK ACCESS:     604905  HIT:     598341  MISS:       6564
L2C PREFETCH  REQUESTED:    5778678  ISSUED:    5764328  USEFUL:      15806  USELESS:     664549
L2C AVERAGE MISS LATENCY: 37.3113 cycles
LLC TOTAL     ACCESS:    2434351  HIT:    2374171  MISS:      60180
LLC LOAD      ACCESS:     200405  HIT:     184729  MISS:      15676
LLC RFO       ACCESS:      70097  HIT:      68136  MISS:       1961
LLC PREFETCH  ACCESS:    2016410  HIT:    1974145  MISS:      42265
LLC WRITEBACK ACCESS:     147439  HIT:     147161  MISS:        278
LLC PREFETCH  REQUESTED:          0  ISSUED:          0  USEFUL:       1811  USELESS:      40070
LLC AVERAGE MISS LATENCY: 154.08 cycles
Major fault: 0 Minor fault: 6057
CPU 0 L1D next line prefetcher final stats

DRAM Statistics
 CHANNEL 0
 RQ ROW_BUFFER_HIT:      16470  ROW_BUFFER_MISS:      43432
 DBUS_CONGESTED:      21393
 WQ ROW_BUFFER_HIT:        347  ROW_BUFFER_MISS:       3154  FULL:          0

 AVG_CONGESTED_CYCLE: 4

CPU 0 Branch Prediction Accuracy: 99.7093% MPKI: 0.54708 Average ROB Occupancy at Mispredict: 152.322

Branch types
NOT_BRANCH: 40590943 81.1819%
BRANCH_DIRECT_JUMP: 523492 1.04698%
BRANCH_INDIRECT: 166997 0.333994%
BRANCH_CONDITIONAL: 6365186 12.7304%
BRANCH_DIRECT_CALL: 989494 1.97899%
BRANCH_INDIRECT_CALL: 187203 0.374406%
BRANCH_RETURN: 1176699 2.3534%
BRANCH_OTHER: 0 0%

