Initialize SIGNATURE TABLE
ST_SET: 1
ST_WAY: 256
ST_TAG_BIT: 16
ST_TAG_MASK: ffff

Initialize PATTERN TABLE
PT_SET: 512
PT_WAY: 4
SIG_DELTA_BIT: 7
C_SIG_BIT: 4
C_DELTA_BIT: 4

Initialize PREFETCH FILTER
FILTER_SET: 1024

*** ChampSim Multicore Out-of-Order Simulator ***

Warmup Instructions: 50000000
Simulation Instructions: 50000000
Number of CPUs: 1
LLC sets: 2048
LLC ways: 16
Off-chip DRAM Size: 4096 MB Channels: 1 Width: 64-bit Data Rate: 3200 MT/s

CPU 0 runs /Users/brandon/Documents/CoursesWi22/CSE240C/Homework1/ChampSim/ipc1_public/server_025.champsimtrace.xz
CPU 0 L1D next line prefetcher
Heartbeat CPU 0 instructions: 10000003 cycles: 3539752 heartbeat IPC: 2.82506 cumulative IPC: 2.82506 (Simulation time: 0 hr 3 min 40 sec) 
Heartbeat CPU 0 instructions: 20000000 cycles: 7085815 heartbeat IPC: 2.82003 cumulative IPC: 2.82254 (Simulation time: 0 hr 8 min 18 sec) 
Heartbeat CPU 0 instructions: 30000001 cycles: 10624234 heartbeat IPC: 2.82612 cumulative IPC: 2.82373 (Simulation time: 0 hr 12 min 46 sec) 
Heartbeat CPU 0 instructions: 40000003 cycles: 14168430 heartbeat IPC: 2.82151 cumulative IPC: 2.82318 (Simulation time: 0 hr 17 min 10 sec) 
Heartbeat CPU 0 instructions: 50000001 cycles: 17710388 heartbeat IPC: 2.8233 cumulative IPC: 2.8232 (Simulation time: 0 hr 21 min 11 sec) 

Warmup complete CPU 0 instructions: 50000001 cycles: 17710388 (Simulation time: 0 hr 21 min 11 sec) 

Heartbeat CPU 0 instructions: 60000002 cycles: 24605170 heartbeat IPC: 1.45037 cumulative IPC: 1.45037 (Simulation time: 0 hr 26 min 0 sec) 
Heartbeat CPU 0 instructions: 70000000 cycles: 31612057 heartbeat IPC: 1.42717 cumulative IPC: 1.43868 (Simulation time: 0 hr 30 min 15 sec) 
Heartbeat CPU 0 instructions: 80000002 cycles: 38538880 heartbeat IPC: 1.44366 cumulative IPC: 1.44033 (Simulation time: 0 hr 34 min 11 sec) 
Heartbeat CPU 0 instructions: 90000001 cycles: 45103849 heartbeat IPC: 1.52324 cumulative IPC: 1.4602 (Simulation time: 0 hr 37 min 22 sec) 
Heartbeat CPU 0 instructions: 100000003 cycles: 51366994 heartbeat IPC: 1.59664 cumulative IPC: 1.48559 (Simulation time: 0 hr 39 min 31 sec) 
Finished CPU 0 instructions: 50000002 cycles: 33656606 cumulative IPC: 1.48559 (Simulation time: 0 hr 39 min 31 sec) 

ChampSim completed all CPUs

Region of Interest Statistics

CPU 0 cumulative IPC: 1.48559 instructions: 50000002 cycles: 33656606
L1D TOTAL     ACCESS:   20022076  HIT:   18596617  MISS:    1425459
L1D LOAD      ACCESS:    6977556  HIT:    6357009  MISS:     620547
L1D RFO       ACCESS:    6382877  HIT:    6134788  MISS:     248089
L1D PREFETCH  ACCESS:    6661643  HIT:    6104820  MISS:     556823
L1D WRITEBACK ACCESS:          0  HIT:          0  MISS:          0
L1D PREFETCH  REQUESTED:    7018185  ISSUED:    6843571  USEFUL:     129487  USELESS:     427329
L1D AVERAGE MISS LATENCY: 24.2126 cycles
L1I TOTAL     ACCESS:   24294931  HIT:   18983621  MISS:    5311310
L1I LOAD      ACCESS:    9579858  HIT:    9485606  MISS:      94252
L1I RFO       ACCESS:          0  HIT:          0  MISS:          0
L1I PREFETCH  ACCESS:   14715073  HIT:    9498015  MISS:    5217058
L1I WRITEBACK ACCESS:          0  HIT:          0  MISS:          0
L1I PREFETCH  REQUESTED:   14817312  ISSUED:   14792293  USEFUL:    2556283  USELESS:    2660707
L1I AVERAGE MISS LATENCY: 16.622 cycles
L2C TOTAL     ACCESS:    9134491  HIT:    8397178  MISS:     737313
L2C LOAD      ACCESS:     634831  HIT:     498954  MISS:     135877
L2C RFO       ACCESS:     246602  HIT:     168907  MISS:      77695
L2C PREFETCH  ACCESS:    7756294  HIT:    7238103  MISS:     518191
L2C WRITEBACK ACCESS:     496764  HIT:     491214  MISS:       5550
L2C PREFETCH  REQUESTED:    4528010  ISSUED:    4517221  USEFUL:      13753  USELESS:     503376
L2C AVERAGE MISS LATENCY: 36.4408 cycles
LLC TOTAL     ACCESS:    2028891  HIT:    2001650  MISS:      27241
LLC LOAD      ACCESS:     135732  HIT:     132838  MISS:       2894
LLC RFO       ACCESS:      77695  HIT:      66869  MISS:      10826
LLC PREFETCH  ACCESS:    1679210  HIT:    1665829  MISS:      13381
LLC WRITEBACK ACCESS:     136254  HIT:     136114  MISS:        140
LLC PREFETCH  REQUESTED:          0  ISSUED:          0  USEFUL:        951  USELESS:      12124
LLC AVERAGE MISS LATENCY: 183.494 cycles
Major fault: 0 Minor fault: 2478
CPU 0 L1D next line prefetcher final stats

DRAM Statistics
 CHANNEL 0
 RQ ROW_BUFFER_HIT:       8940  ROW_BUFFER_MISS:      18159
 DBUS_CONGESTED:      17941
 WQ ROW_BUFFER_HIT:       1232  ROW_BUFFER_MISS:      11366  FULL:          0

 AVG_CONGESTED_CYCLE: 6

CPU 0 Branch Prediction Accuracy: 99.8142% MPKI: 0.34676 Average ROB Occupancy at Mispredict: 201.053

Branch types
NOT_BRANCH: 40668860 81.3377%
BRANCH_DIRECT_JUMP: 531700 1.0634%
BRANCH_INDIRECT: 199025 0.39805%
BRANCH_CONDITIONAL: 6211486 12.423%
BRANCH_DIRECT_CALL: 1010910 2.02182%
BRANCH_INDIRECT_CALL: 183501 0.367002%
BRANCH_RETURN: 1194415 2.38883%
BRANCH_OTHER: 0 0%

