Initialize SIGNATURE TABLE
ST_SET: 1
ST_WAY: 256
ST_TAG_BIT: 16
ST_TAG_MASK: ffff

Initialize PATTERN TABLE
PT_SET: 512
PT_WAY: 4
SIG_DELTA_BIT: 7
C_SIG_BIT: 4
C_DELTA_BIT: 4

Initialize PREFETCH FILTER
FILTER_SET: 1024

*** ChampSim Multicore Out-of-Order Simulator ***

Warmup Instructions: 50000000
Simulation Instructions: 50000000
Number of CPUs: 1
LLC sets: 2048
LLC ways: 16
Off-chip DRAM Size: 4096 MB Channels: 1 Width: 64-bit Data Rate: 3200 MT/s

CPU 0 runs /Users/brandon/Documents/CoursesWi22/CSE240C/Homework1/ChampSim/ipc1_public/server_034.champsimtrace.xz
CPU 0 L1D next line prefetcher
Heartbeat CPU 0 instructions: 10000000 cycles: 3329430 heartbeat IPC: 3.00352 cumulative IPC: 3.00352 (Simulation time: 0 hr 3 min 33 sec) 
Heartbeat CPU 0 instructions: 20000002 cycles: 6651979 heartbeat IPC: 3.00974 cumulative IPC: 3.00662 (Simulation time: 0 hr 7 min 31 sec) 
Heartbeat CPU 0 instructions: 30000003 cycles: 9983179 heartbeat IPC: 3.00192 cumulative IPC: 3.00506 (Simulation time: 0 hr 11 min 48 sec) 
Heartbeat CPU 0 instructions: 40000001 cycles: 13312170 heartbeat IPC: 3.00391 cumulative IPC: 3.00477 (Simulation time: 0 hr 15 min 56 sec) 
Heartbeat CPU 0 instructions: 50000000 cycles: 16639983 heartbeat IPC: 3.00498 cumulative IPC: 3.00481 (Simulation time: 0 hr 19 min 28 sec) 

Warmup complete CPU 0 instructions: 50000002 cycles: 16639984 (Simulation time: 0 hr 19 min 28 sec) 

Heartbeat CPU 0 instructions: 60000002 cycles: 22572220 heartbeat IPC: 1.68571 cumulative IPC: 1.68571 (Simulation time: 0 hr 24 min 2 sec) 
Heartbeat CPU 0 instructions: 70000003 cycles: 28908834 heartbeat IPC: 1.57813 cumulative IPC: 1.63014 (Simulation time: 0 hr 28 min 8 sec) 
Heartbeat CPU 0 instructions: 80000002 cycles: 34954336 heartbeat IPC: 1.65412 cumulative IPC: 1.63806 (Simulation time: 0 hr 31 min 53 sec) 
Heartbeat CPU 0 instructions: 90000002 cycles: 41001895 heartbeat IPC: 1.65356 cumulative IPC: 1.64191 (Simulation time: 0 hr 35 min 19 sec) 
Heartbeat CPU 0 instructions: 100000002 cycles: 46984111 heartbeat IPC: 1.67162 cumulative IPC: 1.64777 (Simulation time: 0 hr 38 min 3 sec) 
Finished CPU 0 instructions: 50000000 cycles: 30344127 cumulative IPC: 1.64777 (Simulation time: 0 hr 38 min 3 sec) 

ChampSim completed all CPUs

Region of Interest Statistics

CPU 0 cumulative IPC: 1.64777 instructions: 50000000 cycles: 30344127
L1D TOTAL     ACCESS:   18236585  HIT:   16812516  MISS:    1424069
L1D LOAD      ACCESS:    6129009  HIT:    5472928  MISS:     656081
L1D RFO       ACCESS:    6160637  HIT:    6018102  MISS:     142535
L1D PREFETCH  ACCESS:    5946939  HIT:    5321486  MISS:     625453
L1D WRITEBACK ACCESS:          0  HIT:          0  MISS:          0
L1D PREFETCH  REQUESTED:    6163438  ISSUED:    6073876  USEFUL:     141030  USELESS:     484392
L1D AVERAGE MISS LATENCY: 17.9484 cycles
L1I TOTAL     ACCESS:   22137515  HIT:   16414773  MISS:    5722742
L1I LOAD      ACCESS:    9760517  HIT:    9755139  MISS:       5378
L1I RFO       ACCESS:          0  HIT:          0  MISS:          0
L1I PREFETCH  ACCESS:   12376998  HIT:    6659634  MISS:    5717364
L1I WRITEBACK ACCESS:          0  HIT:          0  MISS:          0
L1I PREFETCH  REQUESTED:   12405717  ISSUED:   12380209  USEFUL:    3503678  USELESS:    2213605
L1I AVERAGE MISS LATENCY: 14.8714 cycles
L2C TOTAL     ACCESS:    9490936  HIT:    9317229  MISS:     173707
L2C LOAD      ACCESS:     654588  HIT:     613988  MISS:      40600
L2C RFO       ACCESS:     140707  HIT:     129351  MISS:      11356
L2C PREFETCH  ACCESS:    8344912  HIT:    8225949  MISS:     118963
L2C WRITEBACK ACCESS:     350729  HIT:     347941  MISS:       2788
L2C PREFETCH  REQUESTED:    5109245  ISSUED:    5107446  USEFUL:       2812  USELESS:     115185
L2C AVERAGE MISS LATENCY: 37.7676 cycles
LLC TOTAL     ACCESS:    1476468  HIT:    1462575  MISS:      13893
LLC LOAD      ACCESS:      40542  HIT:      37612  MISS:       2930
LLC RFO       ACCESS:      11356  HIT:      11013  MISS:        343
LLC PREFETCH  ACCESS:    1380734  HIT:    1370155  MISS:      10579
LLC WRITEBACK ACCESS:      43836  HIT:      43795  MISS:         41
LLC PREFETCH  REQUESTED:          0  ISSUED:          0  USEFUL:       2891  USELESS:       5860
LLC AVERAGE MISS LATENCY: 156.458 cycles
Major fault: 0 Minor fault: 1183
CPU 0 L1D next line prefetcher final stats

DRAM Statistics
 CHANNEL 0
 RQ ROW_BUFFER_HIT:       3607  ROW_BUFFER_MISS:      10236
 DBUS_CONGESTED:       5806
 WQ ROW_BUFFER_HIT:       1142  ROW_BUFFER_MISS:       2908  FULL:          0

 AVG_CONGESTED_CYCLE: 5

CPU 0 Branch Prediction Accuracy: 99.926% MPKI: 0.14472 Average ROB Occupancy at Mispredict: 264.206

Branch types
NOT_BRANCH: 40221090 80.4422%
BRANCH_DIRECT_JUMP: 771319 1.54264%
BRANCH_INDIRECT: 108663 0.217326%
BRANCH_CONDITIONAL: 6375046 12.7501%
BRANCH_DIRECT_CALL: 1049638 2.09928%
BRANCH_INDIRECT_CALL: 212283 0.424566%
BRANCH_RETURN: 1261926 2.52385%
BRANCH_OTHER: 0 0%

