Initialize SIGNATURE TABLE
ST_SET: 1
ST_WAY: 256
ST_TAG_BIT: 16
ST_TAG_MASK: ffff

Initialize PATTERN TABLE
PT_SET: 512
PT_WAY: 4
SIG_DELTA_BIT: 7
C_SIG_BIT: 4
C_DELTA_BIT: 4

Initialize PREFETCH FILTER
FILTER_SET: 1024

*** ChampSim Multicore Out-of-Order Simulator ***

Warmup Instructions: 50000000
Simulation Instructions: 50000000
Number of CPUs: 1
LLC sets: 2048
LLC ways: 16
Off-chip DRAM Size: 4096 MB Channels: 1 Width: 64-bit Data Rate: 3200 MT/s

CPU 0 runs /Users/brandon/Documents/CoursesWi22/CSE240C/Homework1/ChampSim/ipc1_public/server_022.champsimtrace.xz
CPU 0 L1D next line prefetcher
Heartbeat CPU 0 instructions: 10000002 cycles: 3624564 heartbeat IPC: 2.75895 cumulative IPC: 2.75895 (Simulation time: 0 hr 6 min 5 sec) 
Heartbeat CPU 0 instructions: 20000001 cycles: 7255584 heartbeat IPC: 2.75405 cumulative IPC: 2.7565 (Simulation time: 0 hr 13 min 56 sec) 
Heartbeat CPU 0 instructions: 30000003 cycles: 10880422 heartbeat IPC: 2.75874 cumulative IPC: 2.75725 (Simulation time: 0 hr 20 min 53 sec) 
Heartbeat CPU 0 instructions: 40000003 cycles: 14512966 heartbeat IPC: 2.75289 cumulative IPC: 2.75616 (Simulation time: 0 hr 28 min 51 sec) 
Heartbeat CPU 0 instructions: 50000002 cycles: 18135786 heartbeat IPC: 2.76028 cumulative IPC: 2.75698 (Simulation time: 0 hr 33 min 52 sec) 

Warmup complete CPU 0 instructions: 50000002 cycles: 18135786 (Simulation time: 0 hr 33 min 52 sec) 

Heartbeat CPU 0 instructions: 60000000 cycles: 35717175 heartbeat IPC: 0.568783 cumulative IPC: 0.568783 (Simulation time: 0 hr 38 min 0 sec) 
Heartbeat CPU 0 instructions: 70000001 cycles: 53476135 heartbeat IPC: 0.563096 cumulative IPC: 0.565925 (Simulation time: 0 hr 41 min 55 sec) 
Heartbeat CPU 0 instructions: 80000001 cycles: 71026654 heartbeat IPC: 0.569784 cumulative IPC: 0.567206 (Simulation time: 0 hr 46 min 26 sec) 
Heartbeat CPU 0 instructions: 90000003 cycles: 88872803 heartbeat IPC: 0.560345 cumulative IPC: 0.565475 (Simulation time: 0 hr 50 min 26 sec) 
Heartbeat CPU 0 instructions: 100000003 cycles: 106350413 heartbeat IPC: 0.572161 cumulative IPC: 0.566799 (Simulation time: 0 hr 51 min 55 sec) 
Finished CPU 0 instructions: 50000001 cycles: 88214627 cumulative IPC: 0.566799 (Simulation time: 0 hr 51 min 55 sec) 

ChampSim completed all CPUs

Region of Interest Statistics

CPU 0 cumulative IPC: 0.566799 instructions: 50000001 cycles: 88214627
L1D TOTAL     ACCESS:   18714382  HIT:   16503565  MISS:    2210817
L1D LOAD      ACCESS:    7050763  HIT:    6330032  MISS:     720731
L1D RFO       ACCESS:    5925657  HIT:    4946019  MISS:     979638
L1D PREFETCH  ACCESS:    5737962  HIT:    5227514  MISS:     510448
L1D WRITEBACK ACCESS:          0  HIT:          0  MISS:          0
L1D PREFETCH  REQUESTED:    7093556  ISSUED:    6887158  USEFUL:     189226  USELESS:     321227
L1D AVERAGE MISS LATENCY: 181.827 cycles
L1I TOTAL     ACCESS:   20254696  HIT:   16405271  MISS:    3849425
L1I LOAD      ACCESS:   10183960  HIT:   10170590  MISS:      13370
L1I RFO       ACCESS:          0  HIT:          0  MISS:          0
L1I PREFETCH  ACCESS:   10070736  HIT:    6234681  MISS:    3836055
L1I WRITEBACK ACCESS:          0  HIT:          0  MISS:          0
L1I PREFETCH  REQUESTED:   10086334  ISSUED:   10083244  USEFUL:    2766208  USELESS:    1069798
L1I AVERAGE MISS LATENCY: 16.7732 cycles
L2C TOTAL     ACCESS:    8748534  HIT:    6878139  MISS:    1870395
L2C LOAD      ACCESS:     481283  HIT:     233267  MISS:     248016
L2C RFO       ACCESS:     979003  HIT:      19514  MISS:     959489
L2C PREFETCH  ACCESS:    6103036  HIT:    5443084  MISS:     659952
L2C WRITEBACK ACCESS:    1185212  HIT:    1182274  MISS:       2938
L2C PREFETCH  REQUESTED:    4320500  ISSUED:    4317219  USEFUL:      18796  USELESS:     641147
L2C AVERAGE MISS LATENCY: 223.515 cycles
LLC TOTAL     ACCESS:    4140751  HIT:    2714412  MISS:    1426339
LLC LOAD      ACCESS:     248000  HIT:     169350  MISS:      78650
LLC RFO       ACCESS:     959489  HIT:     141068  MISS:     818421
LLC PREFETCH  ACCESS:    1813042  HIT:    1285956  MISS:     527086
LLC WRITEBACK ACCESS:    1120220  HIT:    1118038  MISS:       2182
LLC PREFETCH  REQUESTED:          0  ISSUED:          0  USEFUL:      27015  USELESS:     500235
LLC AVERAGE MISS LATENCY: 291.145 cycles
Major fault: 0 Minor fault: 23517
CPU 0 L1D next line prefetcher final stats

DRAM Statistics
 CHANNEL 0
 RQ ROW_BUFFER_HIT:     396220  ROW_BUFFER_MISS:    1027634
 DBUS_CONGESTED:    1424901
 WQ ROW_BUFFER_HIT:     285571  ROW_BUFFER_MISS:     619864  FULL:          0

 AVG_CONGESTED_CYCLE: 6

CPU 0 Branch Prediction Accuracy: 99.8317% MPKI: 0.27564 Average ROB Occupancy at Mispredict: 223.554

Branch types
NOT_BRANCH: 41811171 83.6223%
BRANCH_DIRECT_JUMP: 445742 0.891484%
BRANCH_INDIRECT: 48876 0.097752%
BRANCH_CONDITIONAL: 5859410 11.7188%
BRANCH_DIRECT_CALL: 758268 1.51654%
BRANCH_INDIRECT_CALL: 159103 0.318206%
BRANCH_RETURN: 917373 1.83475%
BRANCH_OTHER: 0 0%

