Initialize SIGNATURE TABLE
ST_SET: 1
ST_WAY: 256
ST_TAG_BIT: 16
ST_TAG_MASK: ffff

Initialize PATTERN TABLE
PT_SET: 512
PT_WAY: 4
SIG_DELTA_BIT: 7
C_SIG_BIT: 4
C_DELTA_BIT: 4

Initialize PREFETCH FILTER
FILTER_SET: 1024

*** ChampSim Multicore Out-of-Order Simulator ***

Warmup Instructions: 50000000
Simulation Instructions: 50000000
Number of CPUs: 1
LLC sets: 2048
LLC ways: 16
Off-chip DRAM Size: 4096 MB Channels: 1 Width: 64-bit Data Rate: 3200 MT/s

CPU 0 runs /Users/brandon/Documents/CoursesWi22/CSE240C/Homework1/ChampSim/ipc1_public/spec_gobmk_001.champsimtrace.xz
CPU 0 L1D next line prefetcher
Heartbeat CPU 0 instructions: 10000003 cycles: 3509043 heartbeat IPC: 2.84978 cumulative IPC: 2.84978 (Simulation time: 0 hr 2 min 58 sec) 
Heartbeat CPU 0 instructions: 20000002 cycles: 6990149 heartbeat IPC: 2.87265 cumulative IPC: 2.86117 (Simulation time: 0 hr 6 min 16 sec) 
Heartbeat CPU 0 instructions: 30000002 cycles: 10510133 heartbeat IPC: 2.84092 cumulative IPC: 2.85439 (Simulation time: 0 hr 10 min 5 sec) 
Heartbeat CPU 0 instructions: 40000001 cycles: 14029847 heartbeat IPC: 2.84114 cumulative IPC: 2.85106 (Simulation time: 0 hr 13 min 24 sec) 
Heartbeat CPU 0 instructions: 50000001 cycles: 17570760 heartbeat IPC: 2.82413 cumulative IPC: 2.84564 (Simulation time: 0 hr 17 min 1 sec) 

Warmup complete CPU 0 instructions: 50000001 cycles: 17570760 (Simulation time: 0 hr 17 min 1 sec) 

Heartbeat CPU 0 instructions: 60000000 cycles: 26369300 heartbeat IPC: 1.13655 cumulative IPC: 1.13655 (Simulation time: 0 hr 19 min 54 sec) 
Heartbeat CPU 0 instructions: 70000002 cycles: 34801057 heartbeat IPC: 1.18599 cumulative IPC: 1.16075 (Simulation time: 0 hr 23 min 12 sec) 
Heartbeat CPU 0 instructions: 80000003 cycles: 43643574 heartbeat IPC: 1.1309 cumulative IPC: 1.15062 (Simulation time: 0 hr 26 min 23 sec) 
Heartbeat CPU 0 instructions: 90000001 cycles: 52171725 heartbeat IPC: 1.17259 cumulative IPC: 1.15604 (Simulation time: 0 hr 29 min 13 sec) 
Heartbeat CPU 0 instructions: 100000003 cycles: 61013234 heartbeat IPC: 1.13103 cumulative IPC: 1.15095 (Simulation time: 0 hr 32 min 0 sec) 
Finished CPU 0 instructions: 50000002 cycles: 43442474 cumulative IPC: 1.15095 (Simulation time: 0 hr 32 min 0 sec) 

ChampSim completed all CPUs

Region of Interest Statistics

CPU 0 cumulative IPC: 1.15095 instructions: 50000002 cycles: 43442474
L1D TOTAL     ACCESS:   18014739  HIT:   17635220  MISS:     379519
L1D LOAD      ACCESS:    7226659  HIT:    7091125  MISS:     135534
L1D RFO       ACCESS:    3701085  HIT:    3596547  MISS:     104538
L1D PREFETCH  ACCESS:    7086995  HIT:    6947548  MISS:     139447
L1D WRITEBACK ACCESS:          0  HIT:          0  MISS:          0
L1D PREFETCH  REQUESTED:    7232073  ISSUED:    7149310  USEFUL:      44762  USELESS:      94690
L1D AVERAGE MISS LATENCY: 33.5341 cycles
L1I TOTAL     ACCESS:   22002594  HIT:   19107985  MISS:    2894609
L1I LOAD      ACCESS:    9036594  HIT:    8983699  MISS:      52895
L1I RFO       ACCESS:          0  HIT:          0  MISS:          0
L1I PREFETCH  ACCESS:   12966000  HIT:   10124286  MISS:    2841714
L1I WRITEBACK ACCESS:          0  HIT:          0  MISS:          0
L1I PREFETCH  REQUESTED:   13015008  ISSUED:   13009749  USEFUL:    1106940  USELESS:    1734760
L1I AVERAGE MISS LATENCY: 14.5693 cycles
L2C TOTAL     ACCESS:    4102212  HIT:    3970250  MISS:     131962
L2C LOAD      ACCESS:     137371  HIT:     101912  MISS:      35459
L2C RFO       ACCESS:     104153  HIT:      70013  MISS:      34140
L2C PREFETCH  ACCESS:    3721395  HIT:    3659079  MISS:      62316
L2C WRITEBACK ACCESS:     139293  HIT:     139246  MISS:         47
L2C PREFETCH  REQUESTED:    1089503  ISSUED:    1089468  USEFUL:       4550  USELESS:      58149
L2C AVERAGE MISS LATENCY: 62.4909 cycles
LLC TOTAL     ACCESS:     280404  HIT:     250282  MISS:      30122
LLC LOAD      ACCESS:      35457  HIT:      27440  MISS:       8017
LLC RFO       ACCESS:      34140  HIT:      29045  MISS:       5095
LLC PREFETCH  ACCESS:     166270  HIT:     149438  MISS:      16832
LLC WRITEBACK ACCESS:      44537  HIT:      44359  MISS:        178
LLC PREFETCH  REQUESTED:          0  ISSUED:          0  USEFUL:       1207  USELESS:      14732
LLC AVERAGE MISS LATENCY: 182.531 cycles
Major fault: 0 Minor fault: 4169
CPU 0 L1D next line prefetcher final stats

DRAM Statistics
 CHANNEL 0
 RQ ROW_BUFFER_HIT:       3237  ROW_BUFFER_MISS:      26700
 DBUS_CONGESTED:      15783
 WQ ROW_BUFFER_HIT:       1146  ROW_BUFFER_MISS:      12976  FULL:          0

 AVG_CONGESTED_CYCLE: 4

CPU 0 Branch Prediction Accuracy: 94.7729% MPKI: 9.72684 Average ROB Occupancy at Mispredict: 53.6713

Branch types
NOT_BRANCH: 40695383 81.3908%
BRANCH_DIRECT_JUMP: 422107 0.844214%
BRANCH_INDIRECT: 65 0.00013%
BRANCH_CONDITIONAL: 8105005 16.21%
BRANCH_DIRECT_CALL: 374913 0.749826%
BRANCH_INDIRECT_CALL: 13657 0.027314%
BRANCH_RETURN: 388556 0.777112%
BRANCH_OTHER: 0 0%

