Initialize SIGNATURE TABLE
ST_SET: 1
ST_WAY: 256
ST_TAG_BIT: 16
ST_TAG_MASK: ffff

Initialize PATTERN TABLE
PT_SET: 512
PT_WAY: 4
SIG_DELTA_BIT: 7
C_SIG_BIT: 4
C_DELTA_BIT: 4

Initialize PREFETCH FILTER
FILTER_SET: 1024

*** ChampSim Multicore Out-of-Order Simulator ***

Warmup Instructions: 50000000
Simulation Instructions: 50000000
Number of CPUs: 1
LLC sets: 2048
LLC ways: 16
Off-chip DRAM Size: 4096 MB Channels: 1 Width: 64-bit Data Rate: 3200 MT/s

CPU 0 runs /Users/brandon/Documents/CoursesWi22/CSE240C/Homework1/ChampSim/ipc1_public/spec_perlbench_001.champsimtrace.xz
CPU 0 L1D next line prefetcher
Heartbeat CPU 0 instructions: 10000000 cycles: 3276185 heartbeat IPC: 3.05233 cumulative IPC: 3.05233 (Simulation time: 0 hr 3 min 7 sec) 
Heartbeat CPU 0 instructions: 20000000 cycles: 6542059 heartbeat IPC: 3.06197 cumulative IPC: 3.05714 (Simulation time: 0 hr 6 min 55 sec) 
Heartbeat CPU 0 instructions: 30000002 cycles: 9860065 heartbeat IPC: 3.01386 cumulative IPC: 3.04258 (Simulation time: 0 hr 11 min 26 sec) 
Heartbeat CPU 0 instructions: 40000002 cycles: 13115840 heartbeat IPC: 3.07147 cumulative IPC: 3.04975 (Simulation time: 0 hr 15 min 11 sec) 
Heartbeat CPU 0 instructions: 50000001 cycles: 16390199 heartbeat IPC: 3.05403 cumulative IPC: 3.0506 (Simulation time: 0 hr 18 min 52 sec) 

Warmup complete CPU 0 instructions: 50000001 cycles: 16390199 (Simulation time: 0 hr 18 min 52 sec) 

Heartbeat CPU 0 instructions: 60000001 cycles: 24760173 heartbeat IPC: 1.19475 cumulative IPC: 1.19475 (Simulation time: 0 hr 22 min 37 sec) 
Heartbeat CPU 0 instructions: 70000000 cycles: 32965430 heartbeat IPC: 1.21873 cumulative IPC: 1.20662 (Simulation time: 0 hr 26 min 32 sec) 
Heartbeat CPU 0 instructions: 80000000 cycles: 41494449 heartbeat IPC: 1.17247 cumulative IPC: 1.19502 (Simulation time: 0 hr 29 min 54 sec) 
Heartbeat CPU 0 instructions: 90000000 cycles: 47311721 heartbeat IPC: 1.71902 cumulative IPC: 1.2936 (Simulation time: 0 hr 32 min 38 sec) 
Heartbeat CPU 0 instructions: 100000002 cycles: 53280545 heartbeat IPC: 1.67537 cumulative IPC: 1.35537 (Simulation time: 0 hr 35 min 6 sec) 
Finished CPU 0 instructions: 50000001 cycles: 36890346 cumulative IPC: 1.35537 (Simulation time: 0 hr 35 min 6 sec) 

ChampSim completed all CPUs

Region of Interest Statistics

CPU 0 cumulative IPC: 1.35537 instructions: 50000001 cycles: 36890346
L1D TOTAL     ACCESS:   20725916  HIT:   20310823  MISS:     415093
L1D LOAD      ACCESS:    7192675  HIT:    6979021  MISS:     213654
L1D RFO       ACCESS:    6542684  HIT:    6524170  MISS:      18514
L1D PREFETCH  ACCESS:    6990557  HIT:    6807632  MISS:     182925
L1D WRITEBACK ACCESS:          0  HIT:          0  MISS:          0
L1D PREFETCH  REQUESTED:    7208802  ISSUED:    7092571  USEFUL:      55239  USELESS:     127681
L1D AVERAGE MISS LATENCY: 61.4704 cycles
L1I TOTAL     ACCESS:   29324002  HIT:   27075674  MISS:    2248328
L1I LOAD      ACCESS:    9213458  HIT:    9135800  MISS:      77658
L1I RFO       ACCESS:          0  HIT:          0  MISS:          0
L1I PREFETCH  ACCESS:   20110544  HIT:   17939874  MISS:    2170670
L1I WRITEBACK ACCESS:          0  HIT:          0  MISS:          0
L1I PREFETCH  REQUESTED:   20216739  ISSUED:   20175798  USEFUL:     694060  USELESS:    1476599
L1I AVERAGE MISS LATENCY: 15.2924 cycles
L2C TOTAL     ACCESS:    3278391  HIT:    3103245  MISS:     175146
L2C LOAD      ACCESS:     246206  HIT:     167034  MISS:      79172
L2C RFO       ACCESS:      18264  HIT:      12394  MISS:       5870
L2C PREFETCH  ACCESS:    2934949  HIT:    2845419  MISS:      89530
L2C WRITEBACK ACCESS:      78972  HIT:      78398  MISS:        574
L2C PREFETCH  REQUESTED:    1019917  ISSUED:    1019905  USEFUL:       6146  USELESS:      83141
L2C AVERAGE MISS LATENCY: 122.845 cycles
LLC TOTAL     ACCESS:     415952  HIT:     279149  MISS:     136803
LLC LOAD      ACCESS:      79171  HIT:      27461  MISS:      51710
LLC RFO       ACCESS:       5870  HIT:       2845  MISS:       3025
LLC PREFETCH  ACCESS:     304026  HIT:     222339  MISS:      81687
LLC WRITEBACK ACCESS:      26885  HIT:      26504  MISS:        381
LLC PREFETCH  REQUESTED:          0  ISSUED:          0  USEFUL:       9339  USELESS:      72343
LLC AVERAGE MISS LATENCY: 160.047 cycles
Major fault: 0 Minor fault: 6374
CPU 0 L1D next line prefetcher final stats

DRAM Statistics
 CHANNEL 0
 RQ ROW_BUFFER_HIT:      30177  ROW_BUFFER_MISS:     106245
 DBUS_CONGESTED:      53035
 WQ ROW_BUFFER_HIT:       4834  ROW_BUFFER_MISS:      12436  FULL:          0

 AVG_CONGESTED_CYCLE: 4

CPU 0 Branch Prediction Accuracy: 98.7418% MPKI: 2.47758 Average ROB Occupancy at Mispredict: 77.7876

Branch types
NOT_BRANCH: 40154100 80.3082%
BRANCH_DIRECT_JUMP: 817094 1.63419%
BRANCH_INDIRECT: 303787 0.607574%
BRANCH_CONDITIONAL: 7492103 14.9842%
BRANCH_DIRECT_CALL: 471777 0.943554%
BRANCH_INDIRECT_CALL: 144546 0.289092%
BRANCH_RETURN: 616324 1.23265%
BRANCH_OTHER: 0 0%

