Initialize SIGNATURE TABLE
ST_SET: 1
ST_WAY: 256
ST_TAG_BIT: 16
ST_TAG_MASK: ffff

Initialize PATTERN TABLE
PT_SET: 512
PT_WAY: 4
SIG_DELTA_BIT: 7
C_SIG_BIT: 4
C_DELTA_BIT: 4

Initialize PREFETCH FILTER
FILTER_SET: 1024

*** ChampSim Multicore Out-of-Order Simulator ***

Warmup Instructions: 50000000
Simulation Instructions: 50000000
Number of CPUs: 1
LLC sets: 2048
LLC ways: 16
Off-chip DRAM Size: 4096 MB Channels: 1 Width: 64-bit Data Rate: 3200 MT/s

CPU 0 runs /Users/brandon/Documents/CoursesWi22/CSE240C/Homework1/ChampSim/ipc1_public/client_007.champsimtrace.xz
CPU 0 L1I next line prefetcher
CPU 0 L1D next line prefetcher
Heartbeat CPU 0 instructions: 10000001 cycles: 3641930 heartbeat IPC: 2.7458 cumulative IPC: 2.7458 (Simulation time: 0 hr 1 min 16 sec) 
Heartbeat CPU 0 instructions: 20000003 cycles: 7033338 heartbeat IPC: 2.94863 cumulative IPC: 2.8436 (Simulation time: 0 hr 2 min 40 sec) 
Heartbeat CPU 0 instructions: 30000000 cycles: 10904500 heartbeat IPC: 2.5832 cumulative IPC: 2.75116 (Simulation time: 0 hr 4 min 25 sec) 
Heartbeat CPU 0 instructions: 40000003 cycles: 15064598 heartbeat IPC: 2.40379 cumulative IPC: 2.65523 (Simulation time: 0 hr 6 min 8 sec) 
Heartbeat CPU 0 instructions: 50000002 cycles: 18469309 heartbeat IPC: 2.93711 cumulative IPC: 2.70719 (Simulation time: 0 hr 7 min 43 sec) 

Warmup complete CPU 0 instructions: 50000002 cycles: 18469309 (Simulation time: 0 hr 7 min 43 sec) 

Heartbeat CPU 0 instructions: 60000003 cycles: 25366352 heartbeat IPC: 1.4499 cumulative IPC: 1.4499 (Simulation time: 0 hr 9 min 21 sec) 
Heartbeat CPU 0 instructions: 70000003 cycles: 34226130 heartbeat IPC: 1.1287 cumulative IPC: 1.26929 (Simulation time: 0 hr 11 min 6 sec) 
Heartbeat CPU 0 instructions: 80000002 cycles: 39536331 heartbeat IPC: 1.88317 cumulative IPC: 1.42403 (Simulation time: 0 hr 12 min 18 sec) 
Heartbeat CPU 0 instructions: 90000002 cycles: 47151501 heartbeat IPC: 1.31317 cumulative IPC: 1.39459 (Simulation time: 0 hr 14 min 10 sec) 
Heartbeat CPU 0 instructions: 100000002 cycles: 56077987 heartbeat IPC: 1.12026 cumulative IPC: 1.32948 (Simulation time: 0 hr 15 min 24 sec) 
Finished CPU 0 instructions: 50000000 cycles: 37608678 cumulative IPC: 1.32948 (Simulation time: 0 hr 15 min 24 sec) 

ChampSim completed all CPUs

Region of Interest Statistics

CPU 0 cumulative IPC: 1.32948 instructions: 50000000 cycles: 37608678
L1D TOTAL     ACCESS:   21205991  HIT:   20036958  MISS:    1169033
L1D LOAD      ACCESS:    8373774  HIT:    7833952  MISS:     539822
L1D RFO       ACCESS:    4869257  HIT:    4778176  MISS:      91081
L1D PREFETCH  ACCESS:    7962960  HIT:    7424830  MISS:     538130
L1D WRITEBACK ACCESS:          0  HIT:          0  MISS:          0
L1D PREFETCH  REQUESTED:    8426101  ISSUED:    8182230  USEFUL:     157657  USELESS:     380488
L1D AVERAGE MISS LATENCY: 34.4192 cycles
L1I TOTAL     ACCESS:   10634813  HIT:    9487727  MISS:    1147086
L1I LOAD      ACCESS:    9123671  HIT:    9087240  MISS:      36431
L1I RFO       ACCESS:          0  HIT:          0  MISS:          0
L1I PREFETCH  ACCESS:    1511142  HIT:     400487  MISS:    1110655
L1I WRITEBACK ACCESS:          0  HIT:          0  MISS:          0
L1I PREFETCH  REQUESTED:    1539788  ISSUED:    1539778  USEFUL:     849186  USELESS:     261529
L1I AVERAGE MISS LATENCY: 16.4104 cycles
L2C TOTAL     ACCESS:    3320760  HIT:    3110196  MISS:     210564
L2C LOAD      ACCESS:     542098  HIT:     471420  MISS:      70678
L2C RFO       ACCESS:      89504  HIT:      48134  MISS:      41370
L2C PREFETCH  ACCESS:    2361503  HIT:    2263073  MISS:      98430
L2C WRITEBACK ACCESS:     327655  HIT:     327569  MISS:         86
L2C PREFETCH  REQUESTED:    2679184  ISSUED:    2675957  USEFUL:       9341  USELESS:      89329
L2C AVERAGE MISS LATENCY: 123.181 cycles
LLC TOTAL     ACCESS:     964710  HIT:     795482  MISS:     169228
LLC LOAD      ACCESS:      70588  HIT:      35395  MISS:      35193
LLC RFO       ACCESS:      41370  HIT:       7044  MISS:      34326
LLC PREFETCH  ACCESS:     778614  HIT:     679226  MISS:      99388
LLC WRITEBACK ACCESS:      74138  HIT:      73817  MISS:        321
LLC PREFETCH  REQUESTED:          0  ISSUED:          0  USEFUL:      18685  USELESS:      81755
LLC AVERAGE MISS LATENCY: 181.779 cycles
Major fault: 0 Minor fault: 4407
I-Shadow cache 408 bytes
Touched + WorthPF tables 12288 bytes 
MMA filter 174 bytes 
FNL filter 272 bytes 
TOTAL PREFETCHER STORAGE SIZE: 49494 bytes
CPU 0 L1I next line prefetcher final stats
CPU 0 L1D next line prefetcher final stats

DRAM Statistics
 CHANNEL 0
 RQ ROW_BUFFER_HIT:      35872  ROW_BUFFER_MISS:     133028
 DBUS_CONGESTED:      95392
 WQ ROW_BUFFER_HIT:      12920  ROW_BUFFER_MISS:      45068  FULL:          0

 AVG_CONGESTED_CYCLE: 5

CPU 0 Branch Prediction Accuracy: 98.8607% MPKI: 1.8623 Average ROB Occupancy at Mispredict: 113.081

Branch types
NOT_BRANCH: 41826773 83.6535%
BRANCH_DIRECT_JUMP: 735330 1.47066%
BRANCH_INDIRECT: 269194 0.538388%
BRANCH_CONDITIONAL: 5957947 11.9159%
BRANCH_DIRECT_CALL: 368758 0.737516%
BRANCH_INDIRECT_CALL: 226975 0.45395%
BRANCH_RETURN: 614696 1.22939%
BRANCH_OTHER: 0 0%

