Initialize SIGNATURE TABLE
ST_SET: 1
ST_WAY: 256
ST_TAG_BIT: 16
ST_TAG_MASK: ffff

Initialize PATTERN TABLE
PT_SET: 512
PT_WAY: 4
SIG_DELTA_BIT: 7
C_SIG_BIT: 4
C_DELTA_BIT: 4

Initialize PREFETCH FILTER
FILTER_SET: 1024

*** ChampSim Multicore Out-of-Order Simulator ***

Warmup Instructions: 50000000
Simulation Instructions: 50000000
Number of CPUs: 1
LLC sets: 2048
LLC ways: 16
Off-chip DRAM Size: 4096 MB Channels: 1 Width: 64-bit Data Rate: 3200 MT/s

CPU 0 runs /Users/brandon/Documents/CoursesWi22/CSE240C/Homework1/ChampSim/ipc1_public/server_003.champsimtrace.xz
CPU 0 L1I next line prefetcher
CPU 0 L1D next line prefetcher
Heartbeat CPU 0 instructions: 10000002 cycles: 3219811 heartbeat IPC: 3.10577 cumulative IPC: 3.10577 (Simulation time: 0 hr 1 min 17 sec) 
Heartbeat CPU 0 instructions: 20000000 cycles: 6536475 heartbeat IPC: 3.01508 cumulative IPC: 3.05975 (Simulation time: 0 hr 2 min 48 sec) 
Heartbeat CPU 0 instructions: 30000000 cycles: 9742955 heartbeat IPC: 3.11868 cumulative IPC: 3.07915 (Simulation time: 0 hr 4 min 26 sec) 
Heartbeat CPU 0 instructions: 40000001 cycles: 13157231 heartbeat IPC: 2.92888 cumulative IPC: 3.04015 (Simulation time: 0 hr 6 min 8 sec) 
Heartbeat CPU 0 instructions: 50000003 cycles: 16875922 heartbeat IPC: 2.68912 cumulative IPC: 2.9628 (Simulation time: 0 hr 7 min 53 sec) 

Warmup complete CPU 0 instructions: 50000003 cycles: 16875922 (Simulation time: 0 hr 7 min 53 sec) 

Heartbeat CPU 0 instructions: 60000000 cycles: 25835921 heartbeat IPC: 1.11607 cumulative IPC: 1.11607 (Simulation time: 0 hr 9 min 22 sec) 
Heartbeat CPU 0 instructions: 70000003 cycles: 34773660 heartbeat IPC: 1.11885 cumulative IPC: 1.11746 (Simulation time: 0 hr 10 min 44 sec) 
Heartbeat CPU 0 instructions: 80000000 cycles: 45016174 heartbeat IPC: 0.976323 cumulative IPC: 1.06609 (Simulation time: 0 hr 12 min 15 sec) 
Heartbeat CPU 0 instructions: 90000003 cycles: 55317012 heartbeat IPC: 0.970795 cumulative IPC: 1.04055 (Simulation time: 0 hr 13 min 57 sec) 
Heartbeat CPU 0 instructions: 100000003 cycles: 66070427 heartbeat IPC: 0.929937 cumulative IPC: 1.01637 (Simulation time: 0 hr 15 min 17 sec) 
Finished CPU 0 instructions: 50000000 cycles: 49194505 cumulative IPC: 1.01637 (Simulation time: 0 hr 15 min 17 sec) 

ChampSim completed all CPUs

Region of Interest Statistics

CPU 0 cumulative IPC: 1.01637 instructions: 50000000 cycles: 49194505
L1D TOTAL     ACCESS:   20015271  HIT:   18874381  MISS:    1140890
L1D LOAD      ACCESS:    7861294  HIT:    7331365  MISS:     529929
L1D RFO       ACCESS:    4553527  HIT:    4436209  MISS:     117318
L1D PREFETCH  ACCESS:    7600450  HIT:    7106807  MISS:     493643
L1D WRITEBACK ACCESS:          0  HIT:          0  MISS:          0
L1D PREFETCH  REQUESTED:    7921350  ISSUED:    7829698  USEFUL:     155434  USELESS:     338168
L1D AVERAGE MISS LATENCY: 55.5642 cycles
L1I TOTAL     ACCESS:   11427731  HIT:   10016912  MISS:    1410819
L1I LOAD      ACCESS:    9294696  HIT:    9099019  MISS:     195677
L1I RFO       ACCESS:          0  HIT:          0  MISS:          0
L1I PREFETCH  ACCESS:    2133035  HIT:     917893  MISS:    1215142
L1I WRITEBACK ACCESS:          0  HIT:          0  MISS:          0
L1I PREFETCH  REQUESTED:    2275701  ISSUED:    2275605  USEFUL:     784844  USELESS:     430313
L1I AVERAGE MISS LATENCY: 37.9496 cycles
L2C TOTAL     ACCESS:    3382389  HIT:    2355769  MISS:    1026620
L2C LOAD      ACCESS:     638168  HIT:     370022  MISS:     268146
L2C RFO       ACCESS:     114618  HIT:      40243  MISS:      74375
L2C PREFETCH  ACCESS:    2345350  HIT:    1662390  MISS:     682960
L2C WRITEBACK ACCESS:     284253  HIT:     283114  MISS:       1139
L2C PREFETCH  REQUESTED:    2667175  ISSUED:    2665541  USEFUL:      33022  USELESS:     647594
L2C AVERAGE MISS LATENCY: 83.1473 cycles
LLC TOTAL     ACCESS:    1853334  HIT:    1467359  MISS:     385975
LLC LOAD      ACCESS:     267975  HIT:     196592  MISS:      71383
LLC RFO       ACCESS:      74375  HIT:      32218  MISS:      42157
LLC PREFETCH  ACCESS:    1345050  HIT:    1073872  MISS:     271178
LLC WRITEBACK ACCESS:     165934  HIT:     164677  MISS:       1257
LLC PREFETCH  REQUESTED:          0  ISSUED:          0  USEFUL:      28425  USELESS:     233406
LLC AVERAGE MISS LATENCY: 191.192 cycles
Major fault: 0 Minor fault: 7783
I-Shadow cache 408 bytes
Touched + WorthPF tables 12288 bytes 
MMA filter 174 bytes 
FNL filter 272 bytes 
TOTAL PREFETCHER STORAGE SIZE: 49494 bytes
CPU 0 L1I next line prefetcher final stats
CPU 0 L1D next line prefetcher final stats

DRAM Statistics
 CHANNEL 0
 RQ ROW_BUFFER_HIT:      87018  ROW_BUFFER_MISS:     297650
 DBUS_CONGESTED:     199511
 WQ ROW_BUFFER_HIT:      22383  ROW_BUFFER_MISS:      81305  FULL:          0

 AVG_CONGESTED_CYCLE: 5

CPU 0 Branch Prediction Accuracy: 95.439% MPKI: 9.02702 Average ROB Occupancy at Mispredict: 66.7322

Branch types
NOT_BRANCH: 40104066 80.2081%
BRANCH_DIRECT_JUMP: 497928 0.995856%
BRANCH_INDIRECT: 130587 0.261174%
BRANCH_CONDITIONAL: 7219014 14.438%
BRANCH_DIRECT_CALL: 625807 1.25161%
BRANCH_INDIRECT_CALL: 389787 0.779574%
BRANCH_RETURN: 1032747 2.06549%
BRANCH_OTHER: 0 0%

