Initialize SIGNATURE TABLE
ST_SET: 1
ST_WAY: 256
ST_TAG_BIT: 16
ST_TAG_MASK: ffff

Initialize PATTERN TABLE
PT_SET: 512
PT_WAY: 4
SIG_DELTA_BIT: 7
C_SIG_BIT: 4
C_DELTA_BIT: 4

Initialize PREFETCH FILTER
FILTER_SET: 1024

*** ChampSim Multicore Out-of-Order Simulator ***

Warmup Instructions: 50000000
Simulation Instructions: 50000000
Number of CPUs: 1
LLC sets: 2048
LLC ways: 16
Off-chip DRAM Size: 4096 MB Channels: 1 Width: 64-bit Data Rate: 3200 MT/s

CPU 0 runs /Users/brandon/Documents/CoursesWi22/CSE240C/Homework1/ChampSim/ipc1_public/server_019.champsimtrace.xz
CPU 0 L1I next line prefetcher
CPU 0 L1D next line prefetcher
Heartbeat CPU 0 instructions: 10000002 cycles: 3622593 heartbeat IPC: 2.76045 cumulative IPC: 2.76045 (Simulation time: 0 hr 1 min 26 sec) 
Heartbeat CPU 0 instructions: 20000003 cycles: 7246368 heartbeat IPC: 2.75955 cumulative IPC: 2.76 (Simulation time: 0 hr 3 min 9 sec) 
Heartbeat CPU 0 instructions: 30000002 cycles: 10868841 heartbeat IPC: 2.76054 cumulative IPC: 2.76018 (Simulation time: 0 hr 4 min 56 sec) 
Heartbeat CPU 0 instructions: 40000002 cycles: 14503154 heartbeat IPC: 2.75155 cumulative IPC: 2.75802 (Simulation time: 0 hr 6 min 43 sec) 
Heartbeat CPU 0 instructions: 50000001 cycles: 18126177 heartbeat IPC: 2.76013 cumulative IPC: 2.75844 (Simulation time: 0 hr 8 min 32 sec) 

Warmup complete CPU 0 instructions: 50000001 cycles: 18126177 (Simulation time: 0 hr 8 min 32 sec) 

Heartbeat CPU 0 instructions: 60000000 cycles: 37697293 heartbeat IPC: 0.510957 cumulative IPC: 0.510957 (Simulation time: 0 hr 11 min 5 sec) 
Heartbeat CPU 0 instructions: 70000002 cycles: 61045879 heartbeat IPC: 0.428292 cumulative IPC: 0.465986 (Simulation time: 0 hr 13 min 43 sec) 
Heartbeat CPU 0 instructions: 80000001 cycles: 81381811 heartbeat IPC: 0.49174 cumulative IPC: 0.474266 (Simulation time: 0 hr 15 min 41 sec) 
Heartbeat CPU 0 instructions: 90000002 cycles: 98635942 heartbeat IPC: 0.579571 cumulative IPC: 0.496834 (Simulation time: 0 hr 16 min 34 sec) 
Heartbeat CPU 0 instructions: 100000002 cycles: 115840361 heartbeat IPC: 0.581246 cumulative IPC: 0.511696 (Simulation time: 0 hr 17 min 14 sec) 
Finished CPU 0 instructions: 50000001 cycles: 97714184 cumulative IPC: 0.511696 (Simulation time: 0 hr 17 min 14 sec) 

ChampSim completed all CPUs

Region of Interest Statistics

CPU 0 cumulative IPC: 0.511696 instructions: 50000001 cycles: 97714184
L1D TOTAL     ACCESS:   18305123  HIT:   16081560  MISS:    2223563
L1D LOAD      ACCESS:    6976498  HIT:    6226745  MISS:     749753
L1D RFO       ACCESS:    5508861  HIT:    4606914  MISS:     901947
L1D PREFETCH  ACCESS:    5819764  HIT:    5247901  MISS:     571863
L1D WRITEBACK ACCESS:          0  HIT:          0  MISS:          0
L1D PREFETCH  REQUESTED:    7013853  ISSUED:    6828260  USEFUL:     202684  USELESS:     369088
L1D AVERAGE MISS LATENCY: 187.089 cycles
L1I TOTAL     ACCESS:   14335935  HIT:   11547853  MISS:    2788082
L1I LOAD      ACCESS:    9856654  HIT:    9826958  MISS:      29696
L1I RFO       ACCESS:          0  HIT:          0  MISS:          0
L1I PREFETCH  ACCESS:    4479281  HIT:    1720895  MISS:    2758386
L1I WRITEBACK ACCESS:          0  HIT:          0  MISS:          0
L1I PREFETCH  REQUESTED:    4664668  ISSUED:    4664650  USEFUL:    2307231  USELESS:     451150
L1I AVERAGE MISS LATENCY: 18.4271 cycles
L2C TOTAL     ACCESS:    7260270  HIT:    5362135  MISS:    1898135
L2C LOAD      ACCESS:     566737  HIT:     231871  MISS:     334866
L2C RFO       ACCESS:     901492  HIT:      18125  MISS:     883367
L2C PREFETCH  ACCESS:    4617387  HIT:    3939198  MISS:     678189
L2C WRITEBACK ACCESS:    1174654  HIT:    1172941  MISS:       1713
L2C PREFETCH  REQUESTED:    5086078  ISSUED:    5078698  USEFUL:      22650  USELESS:     654144
L2C AVERAGE MISS LATENCY: 221.624 cycles
LLC TOTAL     ACCESS:    4285707  HIT:    2696738  MISS:    1588969
LLC LOAD      ACCESS:     334747  HIT:     170688  MISS:     164059
LLC RFO       ACCESS:     883326  HIT:     115627  MISS:     767699
LLC PREFETCH  ACCESS:    1956473  HIT:    1301082  MISS:     655391
LLC WRITEBACK ACCESS:    1111161  HIT:    1109341  MISS:       1820
LLC PREFETCH  REQUESTED:          0  ISSUED:          0  USEFUL:      51569  USELESS:     603050
LLC AVERAGE MISS LATENCY: 279.201 cycles
Major fault: 0 Minor fault: 25693
I-Shadow cache 408 bytes
Touched + WorthPF tables 12288 bytes 
MMA filter 174 bytes 
FNL filter 272 bytes 
TOTAL PREFETCHER STORAGE SIZE: 49494 bytes
CPU 0 L1I next line prefetcher final stats
CPU 0 L1D next line prefetcher final stats

DRAM Statistics
 CHANNEL 0
 RQ ROW_BUFFER_HIT:     393643  ROW_BUFFER_MISS:    1193308
 DBUS_CONGESTED:    1585333
 WQ ROW_BUFFER_HIT:     255064  ROW_BUFFER_MISS:     679689  FULL:          0

 AVG_CONGESTED_CYCLE: 6

CPU 0 Branch Prediction Accuracy: 99.2186% MPKI: 1.32192 Average ROB Occupancy at Mispredict: 179.171

Branch types
NOT_BRANCH: 41540785 83.0816%
BRANCH_DIRECT_JUMP: 462384 0.924768%
BRANCH_INDIRECT: 45460 0.09092%
BRANCH_CONDITIONAL: 6209281 12.4186%
BRANCH_DIRECT_CALL: 666241 1.33248%
BRANCH_INDIRECT_CALL: 204728 0.409456%
BRANCH_RETURN: 870978 1.74196%
BRANCH_OTHER: 0 0%

