Initialize SIGNATURE TABLE
ST_SET: 1
ST_WAY: 256
ST_TAG_BIT: 16
ST_TAG_MASK: ffff

Initialize PATTERN TABLE
PT_SET: 512
PT_WAY: 4
SIG_DELTA_BIT: 7
C_SIG_BIT: 4
C_DELTA_BIT: 4

Initialize PREFETCH FILTER
FILTER_SET: 1024

*** ChampSim Multicore Out-of-Order Simulator ***

Warmup Instructions: 50000000
Simulation Instructions: 50000000
Number of CPUs: 1
LLC sets: 2048
LLC ways: 16
Off-chip DRAM Size: 4096 MB Channels: 1 Width: 64-bit Data Rate: 3200 MT/s

CPU 0 runs /Users/brandon/Documents/CoursesWi22/CSE240C/Homework1/ChampSim/ipc1_public/server_031.champsimtrace.xz
CPU 0 L1I next line prefetcher
CPU 0 L1D next line prefetcher
Heartbeat CPU 0 instructions: 10000003 cycles: 3521394 heartbeat IPC: 2.83979 cumulative IPC: 2.83979 (Simulation time: 0 hr 1 min 53 sec) 
Heartbeat CPU 0 instructions: 20000002 cycles: 7041948 heartbeat IPC: 2.84046 cumulative IPC: 2.84012 (Simulation time: 0 hr 3 min 58 sec) 
Heartbeat CPU 0 instructions: 30000002 cycles: 10562803 heartbeat IPC: 2.84022 cumulative IPC: 2.84016 (Simulation time: 0 hr 5 min 56 sec) 
Heartbeat CPU 0 instructions: 40000003 cycles: 14080075 heartbeat IPC: 2.84311 cumulative IPC: 2.84089 (Simulation time: 0 hr 7 min 44 sec) 
Heartbeat CPU 0 instructions: 50000000 cycles: 17599340 heartbeat IPC: 2.8415 cumulative IPC: 2.84102 (Simulation time: 0 hr 9 min 36 sec) 

Warmup complete CPU 0 instructions: 50000004 cycles: 17599341 (Simulation time: 0 hr 9 min 36 sec) 

Heartbeat CPU 0 instructions: 60000001 cycles: 25189769 heartbeat IPC: 1.31745 cumulative IPC: 1.31745 (Simulation time: 0 hr 11 min 37 sec) 
Heartbeat CPU 0 instructions: 70000002 cycles: 32841015 heartbeat IPC: 1.30698 cumulative IPC: 1.31219 (Simulation time: 0 hr 13 min 36 sec) 
*** Reached end of trace for Core: 0 Repeating trace: /Users/brandon/Documents/CoursesWi22/CSE240C/Homework1/ChampSim/ipc1_public/server_031.champsimtrace.xz
Heartbeat CPU 0 instructions: 80000000 cycles: 40343909 heartbeat IPC: 1.33282 cumulative IPC: 1.319 (Simulation time: 0 hr 15 min 21 sec) 
Heartbeat CPU 0 instructions: 90000003 cycles: 47886193 heartbeat IPC: 1.32586 cumulative IPC: 1.32071 (Simulation time: 0 hr 17 min 4 sec) 
Heartbeat CPU 0 instructions: 100000000 cycles: 55395830 heartbeat IPC: 1.33162 cumulative IPC: 1.32287 (Simulation time: 0 hr 18 min 19 sec) 
Finished CPU 0 instructions: 50000000 cycles: 37796494 cumulative IPC: 1.32287 (Simulation time: 0 hr 18 min 19 sec) 

ChampSim completed all CPUs

Region of Interest Statistics

CPU 0 cumulative IPC: 1.32287 instructions: 50000000 cycles: 37796494
L1D TOTAL     ACCESS:   19498075  HIT:   17593775  MISS:    1904300
L1D LOAD      ACCESS:    6761928  HIT:    5888683  MISS:     873245
L1D RFO       ACCESS:    6315966  HIT:    6024469  MISS:     291497
L1D PREFETCH  ACCESS:    6420181  HIT:    5680623  MISS:     739558
L1D WRITEBACK ACCESS:          0  HIT:          0  MISS:          0
L1D PREFETCH  REQUESTED:    6826796  ISSUED:    6712271  USEFUL:     173744  USELESS:     565818
L1D AVERAGE MISS LATENCY: 24.3643 cycles
L1I TOTAL     ACCESS:   15609381  HIT:   11383795  MISS:    4225586
L1I LOAD      ACCESS:    9711337  HIT:    9619943  MISS:      91394
L1I RFO       ACCESS:          0  HIT:          0  MISS:          0
L1I PREFETCH  ACCESS:    5898044  HIT:    1763852  MISS:    4134192
L1I WRITEBACK ACCESS:          0  HIT:          0  MISS:          0
L1I PREFETCH  REQUESTED:    6161688  ISSUED:    6161592  USEFUL:    3029248  USELESS:    1104959
L1I AVERAGE MISS LATENCY: 18.2616 cycles
L2C TOTAL     ACCESS:    8536928  HIT:    7670423  MISS:     866505
L2C LOAD      ACCESS:     854575  HIT:     687314  MISS:     167261
L2C RFO       ACCESS:     289400  HIT:     216981  MISS:      72419
L2C PREFETCH  ACCESS:    6776156  HIT:    6154409  MISS:     621747
L2C WRITEBACK ACCESS:     616797  HIT:     611719  MISS:       5078
L2C PREFETCH  REQUESTED:    9096602  ISSUED:    9069616  USEFUL:      11581  USELESS:     609453
L2C AVERAGE MISS LATENCY: 41.8152 cycles
LLC TOTAL     ACCESS:    2917304  HIT:    2834542  MISS:      82762
LLC LOAD      ACCESS:     167075  HIT:     148310  MISS:      18765
LLC RFO       ACCESS:      72417  HIT:      68257  MISS:       4160
LLC PREFETCH  ACCESS:    2546127  HIT:    2486768  MISS:      59359
LLC WRITEBACK ACCESS:     131685  HIT:     131207  MISS:        478
LLC PREFETCH  REQUESTED:          0  ISSUED:          0  USEFUL:       2874  USELESS:      56071
LLC AVERAGE MISS LATENCY: 159.471 cycles
Major fault: 0 Minor fault: 6045
I-Shadow cache 408 bytes
Touched + WorthPF tables 12288 bytes 
MMA filter 174 bytes 
FNL filter 272 bytes 
TOTAL PREFETCHER STORAGE SIZE: 49494 bytes
CPU 0 L1I next line prefetcher final stats
CPU 0 L1D next line prefetcher final stats

DRAM Statistics
 CHANNEL 0
 RQ ROW_BUFFER_HIT:      22774  ROW_BUFFER_MISS:      59504
 DBUS_CONGESTED:      37458
 WQ ROW_BUFFER_HIT:        716  ROW_BUFFER_MISS:       5071  FULL:          0

 AVG_CONGESTED_CYCLE: 5

CPU 0 Branch Prediction Accuracy: 99.6894% MPKI: 0.58048 Average ROB Occupancy at Mispredict: 144.878

Branch types
NOT_BRANCH: 40655648 81.3113%
BRANCH_DIRECT_JUMP: 546483 1.09297%
BRANCH_INDIRECT: 172433 0.344866%
BRANCH_CONDITIONAL: 6207591 12.4152%
BRANCH_DIRECT_CALL: 1018497 2.03699%
BRANCH_INDIRECT_CALL: 190373 0.380746%
BRANCH_RETURN: 1208855 2.41771%
BRANCH_OTHER: 0 0%

