Initialize SIGNATURE TABLE
ST_SET: 1
ST_WAY: 256
ST_TAG_BIT: 16
ST_TAG_MASK: ffff

Initialize PATTERN TABLE
PT_SET: 512
PT_WAY: 4
SIG_DELTA_BIT: 7
C_SIG_BIT: 4
C_DELTA_BIT: 4

Initialize PREFETCH FILTER
FILTER_SET: 1024

*** ChampSim Multicore Out-of-Order Simulator ***

Warmup Instructions: 50000000
Simulation Instructions: 50000000
Number of CPUs: 1
LLC sets: 2048
LLC ways: 16
Off-chip DRAM Size: 4096 MB Channels: 1 Width: 64-bit Data Rate: 3200 MT/s

CPU 0 runs /Users/brandon/Documents/CoursesWi22/CSE240C/Homework1/ChampSim/ipc1_public/server_018.champsimtrace.xz
CPU 0 L1I next line prefetcher
CPU 0 L1D next line prefetcher
Heartbeat CPU 0 instructions: 10000003 cycles: 3616193 heartbeat IPC: 2.76534 cumulative IPC: 2.76534 (Simulation time: 0 hr 1 min 26 sec) 
Heartbeat CPU 0 instructions: 20000001 cycles: 7237426 heartbeat IPC: 2.76149 cumulative IPC: 2.76341 (Simulation time: 0 hr 3 min 8 sec) 
Heartbeat CPU 0 instructions: 30000003 cycles: 10712540 heartbeat IPC: 2.8776 cumulative IPC: 2.80046 (Simulation time: 0 hr 4 min 48 sec) 
Heartbeat CPU 0 instructions: 40000000 cycles: 14224148 heartbeat IPC: 2.8477 cumulative IPC: 2.81212 (Simulation time: 0 hr 6 min 31 sec) 
Heartbeat CPU 0 instructions: 50000003 cycles: 17840979 heartbeat IPC: 2.76485 cumulative IPC: 2.80254 (Simulation time: 0 hr 8 min 19 sec) 

Warmup complete CPU 0 instructions: 50000003 cycles: 17840979 (Simulation time: 0 hr 8 min 19 sec) 

Heartbeat CPU 0 instructions: 60000000 cycles: 35184319 heartbeat IPC: 0.57659 cumulative IPC: 0.57659 (Simulation time: 0 hr 10 min 45 sec) 
Heartbeat CPU 0 instructions: 70000001 cycles: 52545293 heartbeat IPC: 0.576005 cumulative IPC: 0.576297 (Simulation time: 0 hr 13 min 25 sec) 
Heartbeat CPU 0 instructions: 80000000 cycles: 69817596 heartbeat IPC: 0.578962 cumulative IPC: 0.577183 (Simulation time: 0 hr 15 min 35 sec) 
Heartbeat CPU 0 instructions: 90000002 cycles: 87134212 heartbeat IPC: 0.57748 cumulative IPC: 0.577257 (Simulation time: 0 hr 16 min 30 sec) 
Heartbeat CPU 0 instructions: 100000001 cycles: 104420677 heartbeat IPC: 0.578487 cumulative IPC: 0.577503 (Simulation time: 0 hr 17 min 12 sec) 
Finished CPU 0 instructions: 50000002 cycles: 86579699 cumulative IPC: 0.577503 (Simulation time: 0 hr 17 min 12 sec) 

ChampSim completed all CPUs

Region of Interest Statistics

CPU 0 cumulative IPC: 0.577503 instructions: 50000002 cycles: 86579699
L1D TOTAL     ACCESS:   18624294  HIT:   16406658  MISS:    2217636
L1D LOAD      ACCESS:    7044777  HIT:    6323251  MISS:     721526
L1D RFO       ACCESS:    5806382  HIT:    4854197  MISS:     952185
L1D PREFETCH  ACCESS:    5773135  HIT:    5229210  MISS:     543925
L1D WRITEBACK ACCESS:          0  HIT:          0  MISS:          0
L1D PREFETCH  REQUESTED:    7086322  ISSUED:    6883013  USEFUL:     204216  USELESS:     339798
L1D AVERAGE MISS LATENCY: 176.733 cycles
L1I TOTAL     ACCESS:   15164259  HIT:   12062480  MISS:    3101779
L1I LOAD      ACCESS:   10116911  HIT:   10084691  MISS:      32220
L1I RFO       ACCESS:          0  HIT:          0  MISS:          0
L1I PREFETCH  ACCESS:    5047348  HIT:    1977789  MISS:    3069559
L1I WRITEBACK ACCESS:          0  HIT:          0  MISS:          0
L1I PREFETCH  REQUESTED:    5275574  ISSUED:    5275574  USEFUL:    2579402  USELESS:     490089
L1I AVERAGE MISS LATENCY: 17.6894 cycles
L2C TOTAL     ACCESS:    7655750  HIT:    5787508  MISS:    1868242
L2C LOAD      ACCESS:     512401  HIT:     247667  MISS:     264734
L2C RFO       ACCESS:     951718  HIT:      21384  MISS:     930334
L2C PREFETCH  ACCESS:    5021627  HIT:    4352254  MISS:     669373
L2C WRITEBACK ACCESS:    1170004  HIT:    1166203  MISS:       3801
L2C PREFETCH  REQUESTED:    5277848  ISSUED:    5268475  USEFUL:      22925  USELESS:     647403
L2C AVERAGE MISS LATENCY: 213.849 cycles
LLC TOTAL     ACCESS:    4204848  HIT:    2760725  MISS:    1444123
LLC LOAD      ACCESS:     264633  HIT:     166086  MISS:      98547
LLC RFO       ACCESS:     930282  HIT:     134942  MISS:     795340
LLC PREFETCH  ACCESS:    1908022  HIT:    1359827  MISS:     548195
LLC WRITEBACK ACCESS:    1101911  HIT:    1099870  MISS:       2041
LLC PREFETCH  REQUESTED:          0  ISSUED:          0  USEFUL:      31667  USELESS:     516454
LLC AVERAGE MISS LATENCY: 283.596 cycles
Major fault: 0 Minor fault: 22444
I-Shadow cache 408 bytes
Touched + WorthPF tables 12288 bytes 
MMA filter 174 bytes 
FNL filter 272 bytes 
TOTAL PREFETCHER STORAGE SIZE: 49494 bytes
CPU 0 L1I next line prefetcher final stats
CPU 0 L1D next line prefetcher final stats

DRAM Statistics
 CHANNEL 0
 RQ ROW_BUFFER_HIT:     409258  ROW_BUFFER_MISS:    1032493
 DBUS_CONGESTED:    1459535
 WQ ROW_BUFFER_HIT:     250937  ROW_BUFFER_MISS:     647775  FULL:          0

 AVG_CONGESTED_CYCLE: 6

CPU 0 Branch Prediction Accuracy: 99.7114% MPKI: 0.47678 Average ROB Occupancy at Mispredict: 211.527

Branch types
NOT_BRANCH: 41741008 83.482%
BRANCH_DIRECT_JUMP: 458652 0.917304%
BRANCH_INDIRECT: 48282 0.096564%
BRANCH_CONDITIONAL: 5930881 11.8618%
BRANCH_DIRECT_CALL: 744230 1.48846%
BRANCH_INDIRECT_CALL: 166336 0.332672%
BRANCH_RETURN: 910589 1.82118%
BRANCH_OTHER: 0 0%

