Initialize SIGNATURE TABLE
ST_SET: 1
ST_WAY: 256
ST_TAG_BIT: 16
ST_TAG_MASK: ffff

Initialize PATTERN TABLE
PT_SET: 512
PT_WAY: 4
SIG_DELTA_BIT: 7
C_SIG_BIT: 4
C_DELTA_BIT: 4

Initialize PREFETCH FILTER
FILTER_SET: 1024

*** ChampSim Multicore Out-of-Order Simulator ***

Warmup Instructions: 50000000
Simulation Instructions: 50000000
Number of CPUs: 1
LLC sets: 2048
LLC ways: 16
Off-chip DRAM Size: 4096 MB Channels: 1 Width: 64-bit Data Rate: 3200 MT/s

CPU 0 runs /Users/brandon/Documents/CoursesWi22/CSE240C/Homework1/ChampSim/ipc1_public/server_032.champsimtrace.xz
CPU 0 L1I next line prefetcher
CPU 0 L1D next line prefetcher
Heartbeat CPU 0 instructions: 10000002 cycles: 3520347 heartbeat IPC: 2.84063 cumulative IPC: 2.84063 (Simulation time: 0 hr 1 min 52 sec) 
Heartbeat CPU 0 instructions: 20000003 cycles: 7041543 heartbeat IPC: 2.83994 cumulative IPC: 2.84029 (Simulation time: 0 hr 3 min 56 sec) 
Heartbeat CPU 0 instructions: 30000000 cycles: 10562155 heartbeat IPC: 2.84041 cumulative IPC: 2.84033 (Simulation time: 0 hr 5 min 54 sec) 
Heartbeat CPU 0 instructions: 40000003 cycles: 14084411 heartbeat IPC: 2.83909 cumulative IPC: 2.84002 (Simulation time: 0 hr 7 min 44 sec) 
Heartbeat CPU 0 instructions: 50000000 cycles: 17605303 heartbeat IPC: 2.84019 cumulative IPC: 2.84005 (Simulation time: 0 hr 9 min 35 sec) 

Warmup complete CPU 0 instructions: 50000004 cycles: 17605304 (Simulation time: 0 hr 9 min 35 sec) 

Heartbeat CPU 0 instructions: 60000002 cycles: 24375933 heartbeat IPC: 1.47697 cumulative IPC: 1.47697 (Simulation time: 0 hr 11 min 36 sec) 
Heartbeat CPU 0 instructions: 70000000 cycles: 31140436 heartbeat IPC: 1.4783 cumulative IPC: 1.47764 (Simulation time: 0 hr 13 min 33 sec) 
*** Reached end of trace for Core: 0 Repeating trace: /Users/brandon/Documents/CoursesWi22/CSE240C/Homework1/ChampSim/ipc1_public/server_032.champsimtrace.xz
Heartbeat CPU 0 instructions: 80000003 cycles: 37904747 heartbeat IPC: 1.47835 cumulative IPC: 1.47787 (Simulation time: 0 hr 15 min 16 sec) 
Heartbeat CPU 0 instructions: 90000002 cycles: 44654241 heartbeat IPC: 1.48159 cumulative IPC: 1.4788 (Simulation time: 0 hr 16 min 58 sec) 
Heartbeat CPU 0 instructions: 100000001 cycles: 51410226 heartbeat IPC: 1.48017 cumulative IPC: 1.47907 (Simulation time: 0 hr 18 min 17 sec) 
Finished CPU 0 instructions: 50000002 cycles: 33804924 cumulative IPC: 1.47907 (Simulation time: 0 hr 18 min 17 sec) 

ChampSim completed all CPUs

Region of Interest Statistics

CPU 0 cumulative IPC: 1.47907 instructions: 50000002 cycles: 33804924
L1D TOTAL     ACCESS:   19802974  HIT:   17975149  MISS:    1827825
L1D LOAD      ACCESS:    6769592  HIT:    5975639  MISS:     793953
L1D RFO       ACCESS:    6539640  HIT:    6245890  MISS:     293750
L1D PREFETCH  ACCESS:    6493742  HIT:    5753620  MISS:     740122
L1D WRITEBACK ACCESS:          0  HIT:          0  MISS:          0
L1D PREFETCH  REQUESTED:    6818480  ISSUED:    6679638  USEFUL:     170616  USELESS:     569505
L1D AVERAGE MISS LATENCY: 19.3967 cycles
L1I TOTAL     ACCESS:   15495295  HIT:   11320601  MISS:    4174694
L1I LOAD      ACCESS:    9712845  HIT:    9629788  MISS:      83057
L1I RFO       ACCESS:          0  HIT:          0  MISS:          0
L1I PREFETCH  ACCESS:    5782450  HIT:    1690813  MISS:    4091637
L1I WRITEBACK ACCESS:          0  HIT:          0  MISS:          0
L1I PREFETCH  REQUESTED:    6058530  ISSUED:    6058530  USEFUL:    3191001  USELESS:     900629
L1I AVERAGE MISS LATENCY: 17.1741 cycles
L2C TOTAL     ACCESS:    8338922  HIT:    7725894  MISS:     613028
L2C LOAD      ACCESS:     786377  HIT:     677222  MISS:     109155
L2C RFO       ACCESS:     292559  HIT:     232103  MISS:      60456
L2C PREFETCH  ACCESS:    6623830  HIT:    6182231  MISS:     441599
L2C WRITEBACK ACCESS:     636156  HIT:     634338  MISS:       1818
L2C PREFETCH  REQUESTED:    8420126  ISSUED:    8390498  USEFUL:       6435  USELESS:     434945
L2C AVERAGE MISS LATENCY: 33.9047 cycles
LLC TOTAL     ACCESS:    2551887  HIT:    2544801  MISS:       7086
LLC LOAD      ACCESS:     109143  HIT:     108675  MISS:        468
LLC RFO       ACCESS:      60448  HIT:      60448  MISS:          0
LLC PREFETCH  ACCESS:    2275863  HIT:    2269282  MISS:       6581
LLC WRITEBACK ACCESS:     106433  HIT:     106396  MISS:         37
LLC PREFETCH  REQUESTED:          0  ISSUED:          0  USEFUL:        408  USELESS:       2111
LLC AVERAGE MISS LATENCY: 151.834 cycles
Major fault: 0 Minor fault: 1181
I-Shadow cache 408 bytes
Touched + WorthPF tables 12288 bytes 
MMA filter 174 bytes 
FNL filter 272 bytes 
TOTAL PREFETCHER STORAGE SIZE: 49494 bytes
CPU 0 L1I next line prefetcher final stats
CPU 0 L1D next line prefetcher final stats

DRAM Statistics
 CHANNEL 0
 RQ ROW_BUFFER_HIT:       1634  ROW_BUFFER_MISS:       5415
 DBUS_CONGESTED:       1056
 WQ ROW_BUFFER_HIT:          0  ROW_BUFFER_MISS:          6  FULL:          0

 AVG_CONGESTED_CYCLE: 5

CPU 0 Branch Prediction Accuracy: 99.8762% MPKI: 0.2296 Average ROB Occupancy at Mispredict: 190.548

Branch types
NOT_BRANCH: 40726179 81.4524%
BRANCH_DIRECT_JUMP: 508374 1.01675%
BRANCH_INDIRECT: 180051 0.360102%
BRANCH_CONDITIONAL: 5999665 11.9993%
BRANCH_DIRECT_CALL: 1086739 2.17348%
BRANCH_INDIRECT_CALL: 206109 0.412218%
BRANCH_RETURN: 1292837 2.58567%
BRANCH_OTHER: 0 0%

