Initialize SIGNATURE TABLE
ST_SET: 1
ST_WAY: 256
ST_TAG_BIT: 16
ST_TAG_MASK: ffff

Initialize PATTERN TABLE
PT_SET: 512
PT_WAY: 4
SIG_DELTA_BIT: 7
C_SIG_BIT: 4
C_DELTA_BIT: 4

Initialize PREFETCH FILTER
FILTER_SET: 1024

*** ChampSim Multicore Out-of-Order Simulator ***

Warmup Instructions: 50000000
Simulation Instructions: 50000000
Number of CPUs: 1
LLC sets: 2048
LLC ways: 16
Off-chip DRAM Size: 4096 MB Channels: 1 Width: 64-bit Data Rate: 3200 MT/s

CPU 0 runs /Users/brandon/Documents/CoursesWi22/CSE240C/Homework1/ChampSim/ipc1_public/server_015.champsimtrace.xz
CPU 0 L1I next line prefetcher
CPU 0 L1D next line prefetcher
Heartbeat CPU 0 instructions: 10000002 cycles: 3519394 heartbeat IPC: 2.8414 cumulative IPC: 2.8414 (Simulation time: 0 hr 1 min 23 sec) 
Heartbeat CPU 0 instructions: 20000001 cycles: 7106912 heartbeat IPC: 2.78744 cumulative IPC: 2.81416 (Simulation time: 0 hr 3 min 1 sec) 
Heartbeat CPU 0 instructions: 30000001 cycles: 10645850 heartbeat IPC: 2.82571 cumulative IPC: 2.818 (Simulation time: 0 hr 4 min 44 sec) 
Heartbeat CPU 0 instructions: 40000002 cycles: 14193891 heartbeat IPC: 2.81846 cumulative IPC: 2.81811 (Simulation time: 0 hr 6 min 27 sec) 
Heartbeat CPU 0 instructions: 50000002 cycles: 17742151 heartbeat IPC: 2.81828 cumulative IPC: 2.81815 (Simulation time: 0 hr 8 min 12 sec) 

Warmup complete CPU 0 instructions: 50000002 cycles: 17742151 (Simulation time: 0 hr 8 min 12 sec) 

Heartbeat CPU 0 instructions: 60000002 cycles: 24041184 heartbeat IPC: 1.58755 cumulative IPC: 1.58755 (Simulation time: 0 hr 9 min 59 sec) 
Heartbeat CPU 0 instructions: 70000003 cycles: 30350495 heartbeat IPC: 1.58496 cumulative IPC: 1.58625 (Simulation time: 0 hr 11 min 51 sec) 
Heartbeat CPU 0 instructions: 80000000 cycles: 36659825 heartbeat IPC: 1.58495 cumulative IPC: 1.58582 (Simulation time: 0 hr 13 min 52 sec) 
Heartbeat CPU 0 instructions: 90000000 cycles: 42972475 heartbeat IPC: 1.58412 cumulative IPC: 1.58539 (Simulation time: 0 hr 15 min 27 sec) 
Heartbeat CPU 0 instructions: 100000002 cycles: 49282321 heartbeat IPC: 1.58483 cumulative IPC: 1.58528 (Simulation time: 0 hr 16 min 15 sec) 
Finished CPU 0 instructions: 50000000 cycles: 31540170 cumulative IPC: 1.58528 (Simulation time: 0 hr 16 min 15 sec) 

ChampSim completed all CPUs

Region of Interest Statistics

CPU 0 cumulative IPC: 1.58528 instructions: 50000000 cycles: 31540170
L1D TOTAL     ACCESS:   21835211  HIT:   21818444  MISS:      16767
L1D LOAD      ACCESS:    6695053  HIT:    6694524  MISS:        529
L1D RFO       ACCESS:    8561364  HIT:    8561268  MISS:         96
L1D PREFETCH  ACCESS:    6578794  HIT:    6562652  MISS:      16142
L1D WRITEBACK ACCESS:          0  HIT:          0  MISS:          0
L1D PREFETCH  REQUESTED:    6695115  ISSUED:    6583192  USEFUL:         84  USELESS:      16055
L1D AVERAGE MISS LATENCY: 16.5551 cycles
L1I TOTAL     ACCESS:   15670041  HIT:   13172160  MISS:    2497881
L1I LOAD      ACCESS:    9734211  HIT:    9684780  MISS:      49431
L1I RFO       ACCESS:          0  HIT:          0  MISS:          0
L1I PREFETCH  ACCESS:    5935830  HIT:    3487380  MISS:    2448450
L1I WRITEBACK ACCESS:          0  HIT:          0  MISS:          0
L1I PREFETCH  REQUESTED:    6132845  ISSUED:    6132845  USEFUL:    2069978  USELESS:     378454
L1I AVERAGE MISS LATENCY: 14.2432 cycles
L2C TOTAL     ACCESS:    3393395  HIT:    3393060  MISS:        335
L2C LOAD      ACCESS:      23538  HIT:      23460  MISS:         78
L2C RFO       ACCESS:         95  HIT:         93  MISS:          2
L2C PREFETCH  ACCESS:    3369413  HIT:    3369158  MISS:        255
L2C WRITEBACK ACCESS:        349  HIT:        349  MISS:          0
L2C PREFETCH  REQUESTED:    2294571  ISSUED:    2294549  USEFUL:        126  USELESS:        140
L2C AVERAGE MISS LATENCY: 152.296 cycles
LLC TOTAL     ACCESS:     404536  HIT:     403806  MISS:        730
LLC LOAD      ACCESS:         77  HIT:         62  MISS:         15
LLC RFO       ACCESS:          2  HIT:          0  MISS:          2
LLC PREFETCH  ACCESS:     404346  HIT:     403640  MISS:        706
LLC WRITEBACK ACCESS:        111  HIT:        104  MISS:          7
LLC PREFETCH  REQUESTED:          0  ISSUED:          0  USEFUL:          8  USELESS:        137
LLC AVERAGE MISS LATENCY: 422.314 cycles
Major fault: 0 Minor fault: 1889
I-Shadow cache 408 bytes
Touched + WorthPF tables 12288 bytes 
MMA filter 174 bytes 
FNL filter 272 bytes 
TOTAL PREFETCHER STORAGE SIZE: 49494 bytes
CPU 0 L1I next line prefetcher final stats
CPU 0 L1D next line prefetcher final stats

DRAM Statistics
 CHANNEL 0
 RQ ROW_BUFFER_HIT:        138  ROW_BUFFER_MISS:        585
 DBUS_CONGESTED:        480
 WQ ROW_BUFFER_HIT:         74  ROW_BUFFER_MISS:        478  FULL:          0

 AVG_CONGESTED_CYCLE: 6

CPU 0 Branch Prediction Accuracy: 99.9085% MPKI: 0.15428 Average ROB Occupancy at Mispredict: 292.24

Branch types
NOT_BRANCH: 41573136 83.1463%
BRANCH_DIRECT_JUMP: 436254 0.872508%
BRANCH_INDIRECT: 0 0%
BRANCH_CONDITIONAL: 5395897 10.7918%
BRANCH_DIRECT_CALL: 1173391 2.34678%
BRANCH_INDIRECT_CALL: 123911 0.247822%
BRANCH_RETURN: 1297311 2.59462%
BRANCH_OTHER: 0 0%

