Initialize SIGNATURE TABLE
ST_SET: 1
ST_WAY: 256
ST_TAG_BIT: 16
ST_TAG_MASK: ffff

Initialize PATTERN TABLE
PT_SET: 512
PT_WAY: 4
SIG_DELTA_BIT: 7
C_SIG_BIT: 4
C_DELTA_BIT: 4

Initialize PREFETCH FILTER
FILTER_SET: 1024

*** ChampSim Multicore Out-of-Order Simulator ***

Warmup Instructions: 50000000
Simulation Instructions: 50000000
Number of CPUs: 1
LLC sets: 2048
LLC ways: 16
Off-chip DRAM Size: 4096 MB Channels: 1 Width: 64-bit Data Rate: 3200 MT/s

CPU 0 runs /Users/brandon/Documents/CoursesWi22/CSE240C/Homework1/ChampSim/ipc1_public/spec_gcc_003.champsimtrace.xz
CPU 0 L1I next line prefetcher
CPU 0 L1D next line prefetcher
Heartbeat CPU 0 instructions: 10000001 cycles: 3485173 heartbeat IPC: 2.8693 cumulative IPC: 2.8693 (Simulation time: 0 hr 1 min 20 sec) 
Heartbeat CPU 0 instructions: 20000000 cycles: 6951973 heartbeat IPC: 2.8845 cumulative IPC: 2.87688 (Simulation time: 0 hr 2 min 45 sec) 
Heartbeat CPU 0 instructions: 30000002 cycles: 10395095 heartbeat IPC: 2.90434 cumulative IPC: 2.88598 (Simulation time: 0 hr 4 min 3 sec) 
Heartbeat CPU 0 instructions: 40000000 cycles: 13860291 heartbeat IPC: 2.88584 cumulative IPC: 2.88594 (Simulation time: 0 hr 5 min 22 sec) 
Heartbeat CPU 0 instructions: 50000001 cycles: 17172019 heartbeat IPC: 3.01957 cumulative IPC: 2.91171 (Simulation time: 0 hr 6 min 38 sec) 

Warmup complete CPU 0 instructions: 50000001 cycles: 17172019 (Simulation time: 0 hr 6 min 38 sec) 

Heartbeat CPU 0 instructions: 60000000 cycles: 57021638 heartbeat IPC: 0.250943 cumulative IPC: 0.250943 (Simulation time: 0 hr 9 min 58 sec) 
Heartbeat CPU 0 instructions: 70000000 cycles: 99327440 heartbeat IPC: 0.236374 cumulative IPC: 0.243441 (Simulation time: 0 hr 13 min 34 sec) 
Heartbeat CPU 0 instructions: 80000003 cycles: 142552302 heartbeat IPC: 0.231348 cumulative IPC: 0.239272 (Simulation time: 0 hr 16 min 44 sec) 
Heartbeat CPU 0 instructions: 90000002 cycles: 178995622 heartbeat IPC: 0.274399 cumulative IPC: 0.247183 (Simulation time: 0 hr 18 min 27 sec) 
Heartbeat CPU 0 instructions: 100000000 cycles: 224856149 heartbeat IPC: 0.218052 cumulative IPC: 0.24075 (Simulation time: 0 hr 19 min 1 sec) 
Finished CPU 0 instructions: 50000000 cycles: 207684131 cumulative IPC: 0.24075 (Simulation time: 0 hr 19 min 1 sec) 

ChampSim completed all CPUs

Region of Interest Statistics

CPU 0 cumulative IPC: 0.24075 instructions: 50000000 cycles: 207684131
L1D TOTAL     ACCESS:   16885114  HIT:   11160813  MISS:    5724301
L1D LOAD      ACCESS:    4581683  HIT:    4198758  MISS:     382925
L1D RFO       ACCESS:    8209417  HIT:    3157793  MISS:    5051624
L1D PREFETCH  ACCESS:    4094014  HIT:    3804262  MISS:     289752
L1D WRITEBACK ACCESS:          0  HIT:          0  MISS:          0
L1D PREFETCH  REQUESTED:    4599372  ISSUED:    4540205  USEFUL:     152330  USELESS:     137602
L1D AVERAGE MISS LATENCY: 494.244 cycles
L1I TOTAL     ACCESS:   13661230  HIT:   12246113  MISS:    1415117
L1I LOAD      ACCESS:   11280475  HIT:   11145687  MISS:     134788
L1I RFO       ACCESS:          0  HIT:          0  MISS:          0
L1I PREFETCH  ACCESS:    2380755  HIT:    1100426  MISS:    1280329
L1I WRITEBACK ACCESS:          0  HIT:          0  MISS:          0
L1I PREFETCH  REQUESTED:    2562102  ISSUED:    2546321  USEFUL:     749934  USELESS:     530311
L1I AVERAGE MISS LATENCY: 53.1588 cycles
L2C TOTAL     ACCESS:   12628062  HIT:    6533443  MISS:    6094619
L2C LOAD      ACCESS:     289553  HIT:     103912  MISS:     185641
L2C RFO       ACCESS:    5049856  HIT:       6490  MISS:    5043366
L2C PREFETCH  ACCESS:    2130777  HIT:    1265476  MISS:     865301
L2C WRITEBACK ACCESS:    5157876  HIT:    5157565  MISS:        311
L2C PREFETCH  REQUESTED:    2606645  ISSUED:    2606104  USEFUL:      39776  USELESS:     822735
L2C AVERAGE MISS LATENCY: 463.133 cycles
LLC TOTAL     ACCESS:   12062767  HIT:    7395740  MISS:    4667027
LLC LOAD      ACCESS:     185591  HIT:     139244  MISS:      46347
LLC RFO       ACCESS:    5043366  HIT:     704332  MISS:    4339034
LLC PREFETCH  ACCESS:    1700107  HIT:    1418461  MISS:     281646
LLC WRITEBACK ACCESS:    5133703  HIT:    5133703  MISS:          0
LLC PREFETCH  REQUESTED:          0  ISSUED:          0  USEFUL:      13394  USELESS:     268333
LLC AVERAGE MISS LATENCY: 573.749 cycles
Major fault: 0 Minor fault: 2818
I-Shadow cache 408 bytes
Touched + WorthPF tables 12288 bytes 
MMA filter 174 bytes 
FNL filter 272 bytes 
TOTAL PREFETCHER STORAGE SIZE: 49494 bytes
CPU 0 L1I next line prefetcher final stats
CPU 0 L1D next line prefetcher final stats

DRAM Statistics
 CHANNEL 0
 RQ ROW_BUFFER_HIT:    1412233  ROW_BUFFER_MISS:    3252963
 DBUS_CONGESTED:    8040464
 WQ ROW_BUFFER_HIT:    1157693  ROW_BUFFER_MISS:    3210144  FULL:       1823

 AVG_CONGESTED_CYCLE: 6

CPU 0 Branch Prediction Accuracy: 99.665% MPKI: 0.78342 Average ROB Occupancy at Mispredict: 117.397

Branch types
NOT_BRANCH: 38305856 76.6117%
BRANCH_DIRECT_JUMP: 384281 0.768562%
BRANCH_INDIRECT: 71949 0.143898%
BRANCH_CONDITIONAL: 9879825 19.7597%
BRANCH_DIRECT_CALL: 650586 1.30117%
BRANCH_INDIRECT_CALL: 28456 0.056912%
BRANCH_RETURN: 679046 1.35809%
BRANCH_OTHER: 0 0%

