Initialize SIGNATURE TABLE
ST_SET: 1
ST_WAY: 256
ST_TAG_BIT: 16
ST_TAG_MASK: ffff

Initialize PATTERN TABLE
PT_SET: 512
PT_WAY: 4
SIG_DELTA_BIT: 7
C_SIG_BIT: 4
C_DELTA_BIT: 4

Initialize PREFETCH FILTER
FILTER_SET: 1024

*** ChampSim Multicore Out-of-Order Simulator ***

Warmup Instructions: 50000000
Simulation Instructions: 50000000
Number of CPUs: 1
LLC sets: 2048
LLC ways: 16
Off-chip DRAM Size: 4096 MB Channels: 1 Width: 64-bit Data Rate: 3200 MT/s

CPU 0 runs /Users/brandon/Documents/CoursesWi22/CSE240C/Homework1/ChampSim/ipc1_public/spec_x264_001.champsimtrace.xz
CPU 0 L1I next line prefetcher
CPU 0 L1D next line prefetcher
Heartbeat CPU 0 instructions: 10000002 cycles: 3060390 heartbeat IPC: 3.26756 cumulative IPC: 3.26756 (Simulation time: 0 hr 1 min 13 sec) 
Heartbeat CPU 0 instructions: 20000002 cycles: 6110847 heartbeat IPC: 3.2782 cumulative IPC: 3.27287 (Simulation time: 0 hr 2 min 31 sec) 
Heartbeat CPU 0 instructions: 30000002 cycles: 9146683 heartbeat IPC: 3.29399 cumulative IPC: 3.27988 (Simulation time: 0 hr 3 min 46 sec) 
Heartbeat CPU 0 instructions: 40000000 cycles: 12191616 heartbeat IPC: 3.28414 cumulative IPC: 3.28094 (Simulation time: 0 hr 5 min 2 sec) 
Heartbeat CPU 0 instructions: 50000000 cycles: 15235077 heartbeat IPC: 3.28573 cumulative IPC: 3.2819 (Simulation time: 0 hr 6 min 16 sec) 

Warmup complete CPU 0 instructions: 50000004 cycles: 15235078 (Simulation time: 0 hr 6 min 16 sec) 

Heartbeat CPU 0 instructions: 60000002 cycles: 21161539 heartbeat IPC: 1.68735 cumulative IPC: 1.68735 (Simulation time: 0 hr 6 min 54 sec) 
Heartbeat CPU 0 instructions: 70000000 cycles: 27071451 heartbeat IPC: 1.69207 cumulative IPC: 1.68971 (Simulation time: 0 hr 7 min 32 sec) 
Heartbeat CPU 0 instructions: 80000003 cycles: 33125391 heartbeat IPC: 1.65182 cumulative IPC: 1.67689 (Simulation time: 0 hr 8 min 10 sec) 
Heartbeat CPU 0 instructions: 90000002 cycles: 39158727 heartbeat IPC: 1.65746 cumulative IPC: 1.67199 (Simulation time: 0 hr 8 min 47 sec) 
Heartbeat CPU 0 instructions: 100000002 cycles: 45053801 heartbeat IPC: 1.69633 cumulative IPC: 1.6768 (Simulation time: 0 hr 9 min 29 sec) 
Finished CPU 0 instructions: 50000002 cycles: 29818724 cumulative IPC: 1.6768 (Simulation time: 0 hr 9 min 29 sec) 

ChampSim completed all CPUs

Region of Interest Statistics

CPU 0 cumulative IPC: 1.6768 instructions: 50000002 cycles: 29818724
L1D TOTAL     ACCESS:   12959079  HIT:   12797988  MISS:     161091
L1D LOAD      ACCESS:    5091739  HIT:    5036547  MISS:      55192
L1D RFO       ACCESS:    2883208  HIT:    2848942  MISS:      34266
L1D PREFETCH  ACCESS:    4984132  HIT:    4912499  MISS:      71633
L1D WRITEBACK ACCESS:          0  HIT:          0  MISS:          0
L1D PREFETCH  REQUESTED:    5108200  ISSUED:    5041513  USEFUL:      25756  USELESS:      45686
L1D AVERAGE MISS LATENCY: 39.3981 cycles
L1I TOTAL     ACCESS:    8602218  HIT:    8221616  MISS:     380602
L1I LOAD      ACCESS:    8038583  HIT:    8035029  MISS:       3554
L1I RFO       ACCESS:          0  HIT:          0  MISS:          0
L1I PREFETCH  ACCESS:     563635  HIT:     186587  MISS:     377048
L1I WRITEBACK ACCESS:          0  HIT:          0  MISS:          0
L1I PREFETCH  REQUESTED:     573044  ISSUED:     573044  USEFUL:     295555  USELESS:      81523
L1I AVERAGE MISS LATENCY: 14.7916 cycles
L2C TOTAL     ACCESS:     769639  HIT:     730420  MISS:      39219
L2C LOAD      ACCESS:      57270  HIT:      51733  MISS:       5537
L2C RFO       ACCESS:      34010  HIT:      21955  MISS:      12055
L2C PREFETCH  ACCESS:     635288  HIT:     613733  MISS:      21555
L2C WRITEBACK ACCESS:      43071  HIT:      42999  MISS:         72
L2C PREFETCH  REQUESTED:     608033  ISSUED:     605883  USEFUL:       8984  USELESS:      12780
L2C AVERAGE MISS LATENCY: 101.083 cycles
LLC TOTAL     ACCESS:     139564  HIT:     110305  MISS:      29259
LLC LOAD      ACCESS:       5536  HIT:       3410  MISS:       2126
LLC RFO       ACCESS:      12055  HIT:        448  MISS:      11607
LLC PREFETCH  ACCESS:     108386  HIT:      92956  MISS:      15430
LLC WRITEBACK ACCESS:      13587  HIT:      13491  MISS:         96
LLC PREFETCH  REQUESTED:          0  ISSUED:          0  USEFUL:       1750  USELESS:      14146
LLC AVERAGE MISS LATENCY: 162.385 cycles
Major fault: 0 Minor fault: 1284
I-Shadow cache 408 bytes
Touched + WorthPF tables 12288 bytes 
MMA filter 174 bytes 
FNL filter 272 bytes 
TOTAL PREFETCHER STORAGE SIZE: 49494 bytes
CPU 0 L1I next line prefetcher final stats
CPU 0 L1D next line prefetcher final stats

DRAM Statistics
 CHANNEL 0
 RQ ROW_BUFFER_HIT:      10068  ROW_BUFFER_MISS:      19095
 DBUS_CONGESTED:      12812
 WQ ROW_BUFFER_HIT:       3112  ROW_BUFFER_MISS:       9584  FULL:          0

 AVG_CONGESTED_CYCLE: 6

CPU 0 Branch Prediction Accuracy: 97.1633% MPKI: 1.73704 Average ROB Occupancy at Mispredict: 42.9276

Branch types
NOT_BRANCH: 46937921 93.8758%
BRANCH_DIRECT_JUMP: 170816 0.341632%
BRANCH_INDIRECT: 0 0%
BRANCH_CONDITIONAL: 2532774 5.06555%
BRANCH_DIRECT_CALL: 114227 0.228454%
BRANCH_INDIRECT_CALL: 64863 0.129726%
BRANCH_RETURN: 179089 0.358178%
BRANCH_OTHER: 0 0%

