Initialize SIGNATURE TABLE
ST_SET: 1
ST_WAY: 256
ST_TAG_BIT: 16
ST_TAG_MASK: ffff

Initialize PATTERN TABLE
PT_SET: 512
PT_WAY: 4
SIG_DELTA_BIT: 7
C_SIG_BIT: 4
C_DELTA_BIT: 4

Initialize PREFETCH FILTER
FILTER_SET: 1024

*** ChampSim Multicore Out-of-Order Simulator ***

Warmup Instructions: 50000000
Simulation Instructions: 50000000
Number of CPUs: 1
LLC sets: 2048
LLC ways: 16
Off-chip DRAM Size: 4096 MB Channels: 1 Width: 64-bit Data Rate: 3200 MT/s

CPU 0 runs /Users/brandon/Documents/CoursesWi22/CSE240C/Homework1/ChampSim/ipc1_public/client_002.champsimtrace.xz
CPU 0 L1I next line prefetcher
CPU 0 L1D next line prefetcher
Heartbeat CPU 0 instructions: 10000000 cycles: 3404932 heartbeat IPC: 2.93692 cumulative IPC: 2.93692 (Simulation time: 0 hr 1 min 24 sec) 
Heartbeat CPU 0 instructions: 20000002 cycles: 6860370 heartbeat IPC: 2.89399 cumulative IPC: 2.91529 (Simulation time: 0 hr 3 min 2 sec) 
Heartbeat CPU 0 instructions: 30000001 cycles: 10292941 heartbeat IPC: 2.91327 cumulative IPC: 2.91462 (Simulation time: 0 hr 4 min 43 sec) 
Heartbeat CPU 0 instructions: 40000002 cycles: 13725485 heartbeat IPC: 2.91329 cumulative IPC: 2.91429 (Simulation time: 0 hr 6 min 32 sec) 
Heartbeat CPU 0 instructions: 50000002 cycles: 17165999 heartbeat IPC: 2.90654 cumulative IPC: 2.91273 (Simulation time: 0 hr 8 min 16 sec) 

Warmup complete CPU 0 instructions: 50000002 cycles: 17165999 (Simulation time: 0 hr 8 min 16 sec) 

Heartbeat CPU 0 instructions: 60000002 cycles: 23101973 heartbeat IPC: 1.68464 cumulative IPC: 1.68464 (Simulation time: 0 hr 9 min 51 sec) 
Heartbeat CPU 0 instructions: 70000001 cycles: 29095761 heartbeat IPC: 1.66839 cumulative IPC: 1.67648 (Simulation time: 0 hr 11 min 21 sec) 
Heartbeat CPU 0 instructions: 80000003 cycles: 34972569 heartbeat IPC: 1.7016 cumulative IPC: 1.68477 (Simulation time: 0 hr 12 min 54 sec) 
Heartbeat CPU 0 instructions: 90000000 cycles: 41398511 heartbeat IPC: 1.55619 cumulative IPC: 1.65067 (Simulation time: 0 hr 14 min 28 sec) 
Heartbeat CPU 0 instructions: 100000003 cycles: 47333041 heartbeat IPC: 1.68505 cumulative IPC: 1.65744 (Simulation time: 0 hr 16 min 0 sec) 
Finished CPU 0 instructions: 50000001 cycles: 30167042 cumulative IPC: 1.65744 (Simulation time: 0 hr 16 min 0 sec) 

ChampSim completed all CPUs

Region of Interest Statistics

CPU 0 cumulative IPC: 1.65744 instructions: 50000001 cycles: 30167042
L1D TOTAL     ACCESS:   19105018  HIT:   18765769  MISS:     339249
L1D LOAD      ACCESS:    6472923  HIT:    6356031  MISS:     116892
L1D RFO       ACCESS:    6419443  HIT:    6329682  MISS:      89761
L1D PREFETCH  ACCESS:    6212652  HIT:    6080056  MISS:     132596
L1D WRITEBACK ACCESS:          0  HIT:          0  MISS:          0
L1D PREFETCH  REQUESTED:    6482805  ISSUED:    6281411  USEFUL:      53784  USELESS:      78954
L1D AVERAGE MISS LATENCY: 48.8259 cycles
L1I TOTAL     ACCESS:   12767250  HIT:   11511267  MISS:    1255983
L1I LOAD      ACCESS:    9541990  HIT:    9478119  MISS:      63871
L1I RFO       ACCESS:          0  HIT:          0  MISS:          0
L1I PREFETCH  ACCESS:    3225260  HIT:    2033148  MISS:    1192112
L1I WRITEBACK ACCESS:          0  HIT:          0  MISS:          0
L1I PREFETCH  REQUESTED:    3299371  ISSUED:    3299159  USEFUL:     738232  USELESS:     453892
L1I AVERAGE MISS LATENCY: 17.4597 cycles
L2C TOTAL     ACCESS:    2227785  HIT:    1982045  MISS:     245740
L2C LOAD      ACCESS:     160437  HIT:     117743  MISS:      42694
L2C RFO       ACCESS:      88808  HIT:      22845  MISS:      65963
L2C PREFETCH  ACCESS:    1853024  HIT:    1716408  MISS:     136616
L2C WRITEBACK ACCESS:     125516  HIT:     125049  MISS:        467
L2C PREFETCH  REQUESTED:    1788831  ISSUED:    1787939  USEFUL:      14764  USELESS:     121202
L2C AVERAGE MISS LATENCY: 63.8376 cycles
LLC TOTAL     ACCESS:     712111  HIT:     647394  MISS:      64717
LLC LOAD      ACCESS:      42691  HIT:      36792  MISS:       5899
LLC RFO       ACCESS:      65962  HIT:      36668  MISS:      29294
LLC PREFETCH  ACCESS:     518860  HIT:     489637  MISS:      29223
LLC WRITEBACK ACCESS:      84598  HIT:      84297  MISS:        301
LLC PREFETCH  REQUESTED:          0  ISSUED:          0  USEFUL:       6420  USELESS:      21763
LLC AVERAGE MISS LATENCY: 177.405 cycles
Major fault: 0 Minor fault: 3091
I-Shadow cache 408 bytes
Touched + WorthPF tables 24576 bytes 
MMA filter 174 bytes 
FNL filter 272 bytes 
TOTAL PREFETCHER STORAGE SIZE: 98134 bytes
CPU 0 L1I next line prefetcher final stats
CPU 0 L1D next line prefetcher final stats

DRAM Statistics
 CHANNEL 0
 RQ ROW_BUFFER_HIT:      22361  ROW_BUFFER_MISS:      42054
 DBUS_CONGESTED:      44314
 WQ ROW_BUFFER_HIT:       8814  ROW_BUFFER_MISS:      28289  FULL:          0

 AVG_CONGESTED_CYCLE: 6

CPU 0 Branch Prediction Accuracy: 99.2117% MPKI: 1.49752 Average ROB Occupancy at Mispredict: 115.882

Branch types
NOT_BRANCH: 40501616 81.0032%
BRANCH_DIRECT_JUMP: 517397 1.03479%
BRANCH_INDIRECT: 112348 0.224696%
BRANCH_CONDITIONAL: 6698737 13.3975%
BRANCH_DIRECT_CALL: 960974 1.92195%
BRANCH_INDIRECT_CALL: 123707 0.247414%
BRANCH_RETURN: 1084929 2.16986%
BRANCH_OTHER: 0 0%

