Initialize SIGNATURE TABLE
ST_SET: 1
ST_WAY: 256
ST_TAG_BIT: 16
ST_TAG_MASK: ffff

Initialize PATTERN TABLE
PT_SET: 512
PT_WAY: 4
SIG_DELTA_BIT: 7
C_SIG_BIT: 4
C_DELTA_BIT: 4

Initialize PREFETCH FILTER
FILTER_SET: 1024

*** ChampSim Multicore Out-of-Order Simulator ***

Warmup Instructions: 50000000
Simulation Instructions: 50000000
Number of CPUs: 1
LLC sets: 2048
LLC ways: 16
Off-chip DRAM Size: 4096 MB Channels: 1 Width: 64-bit Data Rate: 3200 MT/s

CPU 0 runs /Users/brandon/Documents/CoursesWi22/CSE240C/Homework1/ChampSim/ipc1_public/client_004.champsimtrace.xz
CPU 0 L1I next line prefetcher
CPU 0 L1D next line prefetcher
Heartbeat CPU 0 instructions: 10000000 cycles: 3592170 heartbeat IPC: 2.78383 cumulative IPC: 2.78383 (Simulation time: 0 hr 1 min 26 sec) 
Heartbeat CPU 0 instructions: 20000003 cycles: 7056610 heartbeat IPC: 2.88647 cumulative IPC: 2.83422 (Simulation time: 0 hr 3 min 0 sec) 
Heartbeat CPU 0 instructions: 30000000 cycles: 10647124 heartbeat IPC: 2.78512 cumulative IPC: 2.81766 (Simulation time: 0 hr 4 min 40 sec) 
Heartbeat CPU 0 instructions: 40000003 cycles: 14327663 heartbeat IPC: 2.71699 cumulative IPC: 2.7918 (Simulation time: 0 hr 6 min 33 sec) 
Heartbeat CPU 0 instructions: 50000001 cycles: 17845514 heartbeat IPC: 2.84264 cumulative IPC: 2.80182 (Simulation time: 0 hr 8 min 20 sec) 

Warmup complete CPU 0 instructions: 50000001 cycles: 17845514 (Simulation time: 0 hr 8 min 20 sec) 

Heartbeat CPU 0 instructions: 60000002 cycles: 25565517 heartbeat IPC: 1.29534 cumulative IPC: 1.29534 (Simulation time: 0 hr 9 min 46 sec) 
Heartbeat CPU 0 instructions: 70000001 cycles: 33386576 heartbeat IPC: 1.2786 cumulative IPC: 1.28691 (Simulation time: 0 hr 11 min 11 sec) 
Heartbeat CPU 0 instructions: 80000002 cycles: 41987339 heartbeat IPC: 1.16269 cumulative IPC: 1.24266 (Simulation time: 0 hr 12 min 36 sec) 
Heartbeat CPU 0 instructions: 90000000 cycles: 50040591 heartbeat IPC: 1.24173 cumulative IPC: 1.24243 (Simulation time: 0 hr 14 min 1 sec) 
Heartbeat CPU 0 instructions: 100000001 cycles: 57841177 heartbeat IPC: 1.28196 cumulative IPC: 1.25014 (Simulation time: 0 hr 15 min 34 sec) 
Finished CPU 0 instructions: 50000000 cycles: 39995663 cumulative IPC: 1.25014 (Simulation time: 0 hr 15 min 34 sec) 

ChampSim completed all CPUs

Region of Interest Statistics

CPU 0 cumulative IPC: 1.25014 instructions: 50000000 cycles: 39995663
L1D TOTAL     ACCESS:   21958247  HIT:   21069280  MISS:     888967
L1D LOAD      ACCESS:    8719940  HIT:    8324067  MISS:     395873
L1D RFO       ACCESS:    4810758  HIT:    4689374  MISS:     121384
L1D PREFETCH  ACCESS:    8427549  HIT:    8055839  MISS:     371710
L1D WRITEBACK ACCESS:          0  HIT:          0  MISS:          0
L1D PREFETCH  REQUESTED:    8759204  ISSUED:    8599770  USEFUL:     133203  USELESS:     238515
L1D AVERAGE MISS LATENCY: 29.867 cycles
L1I TOTAL     ACCESS:   10793380  HIT:    9958297  MISS:     835083
L1I LOAD      ACCESS:    9389375  HIT:    9242970  MISS:     146405
L1I RFO       ACCESS:          0  HIT:          0  MISS:          0
L1I PREFETCH  ACCESS:    1404005  HIT:     715327  MISS:     688678
L1I WRITEBACK ACCESS:          0  HIT:          0  MISS:          0
L1I PREFETCH  REQUESTED:    1475104  ISSUED:    1475097  USEFUL:     452994  USELESS:     235700
L1I AVERAGE MISS LATENCY: 27.4888 cycles
L2C TOTAL     ACCESS:    2550348  HIT:    2252209  MISS:     298139
L2C LOAD      ACCESS:     504526  HIT:     438578  MISS:      65948
L2C RFO       ACCESS:     117427  HIT:      46038  MISS:      71389
L2C PREFETCH  ACCESS:    1706382  HIT:    1546216  MISS:     160166
L2C WRITEBACK ACCESS:     222013  HIT:     221377  MISS:        636
L2C PREFETCH  REQUESTED:    1828794  ISSUED:    1828111  USEFUL:      25800  USELESS:     133236
L2C AVERAGE MISS LATENCY: 88.2242 cycles
LLC TOTAL     ACCESS:     723701  HIT:     585630  MISS:     138071
LLC LOAD      ACCESS:      65935  HIT:      47161  MISS:      18774
LLC RFO       ACCESS:      71389  HIT:      40462  MISS:      30927
LLC PREFETCH  ACCESS:     486177  HIT:     398141  MISS:      88036
LLC WRITEBACK ACCESS:     100200  HIT:      99866  MISS:        334
LLC PREFETCH  REQUESTED:          0  ISSUED:          0  USEFUL:      18797  USELESS:      69197
LLC AVERAGE MISS LATENCY: 186.168 cycles
Major fault: 0 Minor fault: 3981
I-Shadow cache 408 bytes
Touched + WorthPF tables 24576 bytes 
MMA filter 174 bytes 
FNL filter 272 bytes 
TOTAL PREFETCHER STORAGE SIZE: 98134 bytes
CPU 0 L1I next line prefetcher final stats
CPU 0 L1D next line prefetcher final stats

DRAM Statistics
 CHANNEL 0
 RQ ROW_BUFFER_HIT:      35624  ROW_BUFFER_MISS:     102091
 DBUS_CONGESTED:      72086
 WQ ROW_BUFFER_HIT:       8017  ROW_BUFFER_MISS:      37302  FULL:          0

 AVG_CONGESTED_CYCLE: 6

CPU 0 Branch Prediction Accuracy: 94.1242% MPKI: 11.6089 Average ROB Occupancy at Mispredict: 55.845

Branch types
NOT_BRANCH: 40121069 80.2421%
BRANCH_DIRECT_JUMP: 644555 1.28911%
BRANCH_INDIRECT: 201946 0.403892%
BRANCH_CONDITIONAL: 7003556 14.0071%
BRANCH_DIRECT_CALL: 564821 1.12964%
BRANCH_INDIRECT_CALL: 445012 0.890024%
BRANCH_RETURN: 1018716 2.03743%
BRANCH_OTHER: 0 0%

