Initialize SIGNATURE TABLE
ST_SET: 1
ST_WAY: 256
ST_TAG_BIT: 16
ST_TAG_MASK: ffff

Initialize PATTERN TABLE
PT_SET: 512
PT_WAY: 4
SIG_DELTA_BIT: 7
C_SIG_BIT: 4
C_DELTA_BIT: 4

Initialize PREFETCH FILTER
FILTER_SET: 1024

*** ChampSim Multicore Out-of-Order Simulator ***

Warmup Instructions: 50000000
Simulation Instructions: 50000000
Number of CPUs: 1
LLC sets: 2048
LLC ways: 16
Off-chip DRAM Size: 4096 MB Channels: 1 Width: 64-bit Data Rate: 3200 MT/s

CPU 0 runs /Users/brandon/Documents/CoursesWi22/CSE240C/Homework1/ChampSim/ipc1_public/client_007.champsimtrace.xz
CPU 0 L1I next line prefetcher
CPU 0 L1D next line prefetcher
Heartbeat CPU 0 instructions: 10000001 cycles: 3641882 heartbeat IPC: 2.74583 cumulative IPC: 2.74583 (Simulation time: 0 hr 1 min 24 sec) 
Heartbeat CPU 0 instructions: 20000003 cycles: 7033337 heartbeat IPC: 2.94859 cumulative IPC: 2.8436 (Simulation time: 0 hr 2 min 56 sec) 
Heartbeat CPU 0 instructions: 30000000 cycles: 10904644 heartbeat IPC: 2.58311 cumulative IPC: 2.75112 (Simulation time: 0 hr 4 min 47 sec) 
Heartbeat CPU 0 instructions: 40000003 cycles: 15064757 heartbeat IPC: 2.40378 cumulative IPC: 2.6552 (Simulation time: 0 hr 6 min 45 sec) 
Heartbeat CPU 0 instructions: 50000002 cycles: 18469162 heartbeat IPC: 2.93737 cumulative IPC: 2.70722 (Simulation time: 0 hr 8 min 27 sec) 

Warmup complete CPU 0 instructions: 50000002 cycles: 18469162 (Simulation time: 0 hr 8 min 27 sec) 

Heartbeat CPU 0 instructions: 60000003 cycles: 25364183 heartbeat IPC: 1.45032 cumulative IPC: 1.45032 (Simulation time: 0 hr 10 min 15 sec) 
Heartbeat CPU 0 instructions: 70000003 cycles: 34232506 heartbeat IPC: 1.12761 cumulative IPC: 1.26877 (Simulation time: 0 hr 12 min 4 sec) 
Heartbeat CPU 0 instructions: 80000002 cycles: 39541305 heartbeat IPC: 1.88366 cumulative IPC: 1.42368 (Simulation time: 0 hr 13 min 21 sec) 
Heartbeat CPU 0 instructions: 90000002 cycles: 47153750 heartbeat IPC: 1.31364 cumulative IPC: 1.39448 (Simulation time: 0 hr 15 min 8 sec) 
Heartbeat CPU 0 instructions: 100000002 cycles: 56054932 heartbeat IPC: 1.12345 cumulative IPC: 1.33029 (Simulation time: 0 hr 16 min 23 sec) 
Finished CPU 0 instructions: 50000000 cycles: 37585770 cumulative IPC: 1.33029 (Simulation time: 0 hr 16 min 23 sec) 

ChampSim completed all CPUs

Region of Interest Statistics

CPU 0 cumulative IPC: 1.33029 instructions: 50000000 cycles: 37585770
L1D TOTAL     ACCESS:   21206016  HIT:   20036951  MISS:    1169065
L1D LOAD      ACCESS:    8373478  HIT:    7833778  MISS:     539700
L1D RFO       ACCESS:    4869345  HIT:    4778292  MISS:      91053
L1D PREFETCH  ACCESS:    7963193  HIT:    7424881  MISS:     538312
L1D WRITEBACK ACCESS:          0  HIT:          0  MISS:          0
L1D PREFETCH  REQUESTED:    8426551  ISSUED:    8182900  USEFUL:     157777  USELESS:     380550
L1D AVERAGE MISS LATENCY: 34.3945 cycles
L1I TOTAL     ACCESS:   10623631  HIT:    9471135  MISS:    1152496
L1I LOAD      ACCESS:    9121448  HIT:    9090240  MISS:      31208
L1I RFO       ACCESS:          0  HIT:          0  MISS:          0
L1I PREFETCH  ACCESS:    1502183  HIT:     380895  MISS:    1121288
L1I WRITEBACK ACCESS:          0  HIT:          0  MISS:          0
L1I PREFETCH  REQUESTED:    1524266  ISSUED:    1524264  USEFUL:     855113  USELESS:     266259
L1I AVERAGE MISS LATENCY: 16.3329 cycles
L2C TOTAL     ACCESS:    3295803  HIT:    3086956  MISS:     208847
L2C LOAD      ACCESS:     537507  HIT:     467193  MISS:      70314
L2C RFO       ACCESS:      89482  HIT:      48119  MISS:      41363
L2C PREFETCH  ACCESS:    2341176  HIT:    2244094  MISS:      97082
L2C WRITEBACK ACCESS:     327638  HIT:     327550  MISS:         88
L2C PREFETCH  REQUESTED:    2710829  ISSUED:    2706746  USEFUL:       9263  USELESS:      88031
L2C AVERAGE MISS LATENCY: 123.48 cycles
LLC TOTAL     ACCESS:    1017376  HIT:     848830  MISS:     168546
LLC LOAD      ACCESS:      70221  HIT:      35147  MISS:      35074
LLC RFO       ACCESS:      41363  HIT:       6844  MISS:      34519
LLC PREFETCH  ACCESS:     831666  HIT:     732986  MISS:      98680
LLC WRITEBACK ACCESS:      74126  HIT:      73853  MISS:        273
LLC PREFETCH  REQUESTED:          0  ISSUED:          0  USEFUL:      18522  USELESS:      80868
LLC AVERAGE MISS LATENCY: 181.558 cycles
Major fault: 0 Minor fault: 4407
I-Shadow cache 408 bytes
Touched + WorthPF tables 24576 bytes 
MMA filter 174 bytes 
FNL filter 272 bytes 
TOTAL PREFETCHER STORAGE SIZE: 98134 bytes
CPU 0 L1I next line prefetcher final stats
CPU 0 L1D next line prefetcher final stats

DRAM Statistics
 CHANNEL 0
 RQ ROW_BUFFER_HIT:      35958  ROW_BUFFER_MISS:     132307
 DBUS_CONGESTED:      94744
 WQ ROW_BUFFER_HIT:      12937  ROW_BUFFER_MISS:      45290  FULL:          0

 AVG_CONGESTED_CYCLE: 5

CPU 0 Branch Prediction Accuracy: 98.8607% MPKI: 1.8623 Average ROB Occupancy at Mispredict: 113.273

Branch types
NOT_BRANCH: 41826773 83.6535%
BRANCH_DIRECT_JUMP: 735330 1.47066%
BRANCH_INDIRECT: 269194 0.538388%
BRANCH_CONDITIONAL: 5957947 11.9159%
BRANCH_DIRECT_CALL: 368758 0.737516%
BRANCH_INDIRECT_CALL: 226975 0.45395%
BRANCH_RETURN: 614696 1.22939%
BRANCH_OTHER: 0 0%

