Initialize SIGNATURE TABLE
ST_SET: 1
ST_WAY: 256
ST_TAG_BIT: 16
ST_TAG_MASK: ffff

Initialize PATTERN TABLE
PT_SET: 512
PT_WAY: 4
SIG_DELTA_BIT: 7
C_SIG_BIT: 4
C_DELTA_BIT: 4

Initialize PREFETCH FILTER
FILTER_SET: 1024

*** ChampSim Multicore Out-of-Order Simulator ***

Warmup Instructions: 50000000
Simulation Instructions: 50000000
Number of CPUs: 1
LLC sets: 2048
LLC ways: 16
Off-chip DRAM Size: 4096 MB Channels: 1 Width: 64-bit Data Rate: 3200 MT/s

CPU 0 runs /Users/brandon/Documents/CoursesWi22/CSE240C/Homework1/ChampSim/ipc1_public/server_017.champsimtrace.xz
CPU 0 L1I next line prefetcher
CPU 0 L1D next line prefetcher
Heartbeat CPU 0 instructions: 10000001 cycles: 3622535 heartbeat IPC: 2.7605 cumulative IPC: 2.7605 (Simulation time: 0 hr 1 min 35 sec) 
Heartbeat CPU 0 instructions: 20000000 cycles: 7243101 heartbeat IPC: 2.762 cumulative IPC: 2.76125 (Simulation time: 0 hr 3 min 24 sec) 
Heartbeat CPU 0 instructions: 30000002 cycles: 10870503 heartbeat IPC: 2.75679 cumulative IPC: 2.75976 (Simulation time: 0 hr 5 min 17 sec) 
Heartbeat CPU 0 instructions: 40000000 cycles: 14492832 heartbeat IPC: 2.76065 cumulative IPC: 2.75998 (Simulation time: 0 hr 7 min 20 sec) 
Heartbeat CPU 0 instructions: 50000001 cycles: 18126435 heartbeat IPC: 2.75209 cumulative IPC: 2.7584 (Simulation time: 0 hr 9 min 17 sec) 

Warmup complete CPU 0 instructions: 50000001 cycles: 18126435 (Simulation time: 0 hr 9 min 17 sec) 

Heartbeat CPU 0 instructions: 60000002 cycles: 35490622 heartbeat IPC: 0.575898 cumulative IPC: 0.575898 (Simulation time: 0 hr 11 min 51 sec) 
Heartbeat CPU 0 instructions: 70000002 cycles: 52878978 heartbeat IPC: 0.575098 cumulative IPC: 0.575498 (Simulation time: 0 hr 14 min 31 sec) 
Heartbeat CPU 0 instructions: 80000000 cycles: 70019925 heartbeat IPC: 0.583398 cumulative IPC: 0.578107 (Simulation time: 0 hr 16 min 38 sec) 
Heartbeat CPU 0 instructions: 90000002 cycles: 93079758 heartbeat IPC: 0.433655 cumulative IPC: 0.533665 (Simulation time: 0 hr 17 min 32 sec) 
Heartbeat CPU 0 instructions: 100000003 cycles: 112909194 heartbeat IPC: 0.504301 cumulative IPC: 0.527522 (Simulation time: 0 hr 18 min 11 sec) 
Finished CPU 0 instructions: 50000002 cycles: 94782759 cumulative IPC: 0.527522 (Simulation time: 0 hr 18 min 11 sec) 

ChampSim completed all CPUs

Region of Interest Statistics

CPU 0 cumulative IPC: 0.527522 instructions: 50000002 cycles: 94782759
L1D TOTAL     ACCESS:   18379165  HIT:   16213613  MISS:    2165552
L1D LOAD      ACCESS:    7025908  HIT:    6283422  MISS:     742486
L1D RFO       ACCESS:    5513812  HIT:    4654628  MISS:     859184
L1D PREFETCH  ACCESS:    5839445  HIT:    5275563  MISS:     563882
L1D WRITEBACK ACCESS:          0  HIT:          0  MISS:          0
L1D PREFETCH  REQUESTED:    7062975  ISSUED:    6871702  USEFUL:     201531  USELESS:     362412
L1D AVERAGE MISS LATENCY: 175.568 cycles
L1I TOTAL     ACCESS:   14030854  HIT:   11326694  MISS:    2704160
L1I LOAD      ACCESS:    9898032  HIT:    9872312  MISS:      25720
L1I RFO       ACCESS:          0  HIT:          0  MISS:          0
L1I PREFETCH  ACCESS:    4132822  HIT:    1454382  MISS:    2678440
L1I WRITEBACK ACCESS:          0  HIT:          0  MISS:          0
L1I PREFETCH  REQUESTED:    4257007  ISSUED:    4257005  USEFUL:    2310741  USELESS:     367686
L1I AVERAGE MISS LATENCY: 17.9488 cycles
L2C TOTAL     ACCESS:    7053916  HIT:    5211926  MISS:    1841990
L2C LOAD      ACCESS:     554038  HIT:     226954  MISS:     327084
L2C RFO       ACCESS:     858691  HIT:      18204  MISS:     840487
L2C PREFETCH  ACCESS:    4518330  HIT:    3845390  MISS:     672940
L2C WRITEBACK ACCESS:    1122857  HIT:    1121378  MISS:       1479
L2C PREFETCH  REQUESTED:    4783833  ISSUED:    4777606  USEFUL:      22509  USELESS:     651180
L2C AVERAGE MISS LATENCY: 208.972 cycles
LLC TOTAL     ACCESS:    4159470  HIT:    2645182  MISS:    1514288
LLC LOAD      ACCESS:     326998  HIT:     171457  MISS:     155541
LLC RFO       ACCESS:     840451  HIT:     124363  MISS:     716088
LLC PREFETCH  ACCESS:    1931433  HIT:    1290462  MISS:     640971
LLC WRITEBACK ACCESS:    1060588  HIT:    1058900  MISS:       1688
LLC PREFETCH  REQUESTED:          0  ISSUED:          0  USEFUL:      47918  USELESS:     592303
LLC AVERAGE MISS LATENCY: 267.93 cycles
Major fault: 0 Minor fault: 24695
I-Shadow cache 408 bytes
Touched + WorthPF tables 24576 bytes 
MMA filter 174 bytes 
FNL filter 272 bytes 
TOTAL PREFETCHER STORAGE SIZE: 98134 bytes
CPU 0 L1I next line prefetcher final stats
CPU 0 L1D next line prefetcher final stats

DRAM Statistics
 CHANNEL 0
 RQ ROW_BUFFER_HIT:     374504  ROW_BUFFER_MISS:    1137945
 DBUS_CONGESTED:    1466587
 WQ ROW_BUFFER_HIT:     245058  ROW_BUFFER_MISS:     628223  FULL:          0

 AVG_CONGESTED_CYCLE: 6

CPU 0 Branch Prediction Accuracy: 99.2833% MPKI: 1.20568 Average ROB Occupancy at Mispredict: 181.546

Branch types
NOT_BRANCH: 41588350 83.1767%
BRANCH_DIRECT_JUMP: 464501 0.929002%
BRANCH_INDIRECT: 45704 0.091408%
BRANCH_CONDITIONAL: 6147408 12.2948%
BRANCH_DIRECT_CALL: 675450 1.3509%
BRANCH_INDIRECT_CALL: 201532 0.403064%
BRANCH_RETURN: 876985 1.75397%
BRANCH_OTHER: 0 0%

