Initialize SIGNATURE TABLE
ST_SET: 1
ST_WAY: 256
ST_TAG_BIT: 16
ST_TAG_MASK: ffff

Initialize PATTERN TABLE
PT_SET: 512
PT_WAY: 4
SIG_DELTA_BIT: 7
C_SIG_BIT: 4
C_DELTA_BIT: 4

Initialize PREFETCH FILTER
FILTER_SET: 1024

*** ChampSim Multicore Out-of-Order Simulator ***

Warmup Instructions: 50000000
Simulation Instructions: 50000000
Number of CPUs: 1
LLC sets: 2048
LLC ways: 16
Off-chip DRAM Size: 4096 MB Channels: 1 Width: 64-bit Data Rate: 3200 MT/s

CPU 0 runs /Users/brandon/Documents/CoursesWi22/CSE240C/Homework1/ChampSim/ipc1_public/server_004.champsimtrace.xz
CPU 0 L1I next line prefetcher
CPU 0 L1D next line prefetcher
Heartbeat CPU 0 instructions: 10000002 cycles: 3225879 heartbeat IPC: 3.09993 cumulative IPC: 3.09993 (Simulation time: 0 hr 1 min 26 sec) 
Heartbeat CPU 0 instructions: 20000002 cycles: 6558917 heartbeat IPC: 3.00027 cumulative IPC: 3.04928 (Simulation time: 0 hr 3 min 5 sec) 
Heartbeat CPU 0 instructions: 30000000 cycles: 11675897 heartbeat IPC: 1.95428 cumulative IPC: 2.5694 (Simulation time: 0 hr 5 min 11 sec) 
Heartbeat CPU 0 instructions: 40000003 cycles: 15421559 heartbeat IPC: 2.66976 cumulative IPC: 2.59377 (Simulation time: 0 hr 7 min 10 sec) 
Heartbeat CPU 0 instructions: 50000003 cycles: 18646282 heartbeat IPC: 3.10104 cumulative IPC: 2.6815 (Simulation time: 0 hr 8 min 55 sec) 

Warmup complete CPU 0 instructions: 50000003 cycles: 18646282 (Simulation time: 0 hr 8 min 55 sec) 

Heartbeat CPU 0 instructions: 60000002 cycles: 27296647 heartbeat IPC: 1.15602 cumulative IPC: 1.15602 (Simulation time: 0 hr 10 min 36 sec) 
Heartbeat CPU 0 instructions: 70000000 cycles: 35374131 heartbeat IPC: 1.23801 cumulative IPC: 1.19561 (Simulation time: 0 hr 12 min 14 sec) 
Heartbeat CPU 0 instructions: 80000001 cycles: 56296622 heartbeat IPC: 0.477955 cumulative IPC: 0.796806 (Simulation time: 0 hr 15 min 0 sec) 
Heartbeat CPU 0 instructions: 90000003 cycles: 71103215 heartbeat IPC: 0.675375 cumulative IPC: 0.76253 (Simulation time: 0 hr 16 min 31 sec) 
Heartbeat CPU 0 instructions: 100000003 cycles: 79616831 heartbeat IPC: 1.17459 cumulative IPC: 0.820068 (Simulation time: 0 hr 17 min 13 sec) 
Finished CPU 0 instructions: 50000000 cycles: 60970549 cumulative IPC: 0.820068 (Simulation time: 0 hr 17 min 13 sec) 

ChampSim completed all CPUs

Region of Interest Statistics

CPU 0 cumulative IPC: 0.820068 instructions: 50000000 cycles: 60970549
L1D TOTAL     ACCESS:   21622708  HIT:   17551654  MISS:    4071054
L1D LOAD      ACCESS:    8595527  HIT:    6576856  MISS:    2018671
L1D RFO       ACCESS:    4641958  HIT:    4535104  MISS:     106854
L1D PREFETCH  ACCESS:    8385223  HIT:    6439694  MISS:    1945529
L1D WRITEBACK ACCESS:          0  HIT:          0  MISS:          0
L1D PREFETCH  REQUESTED:    8630399  ISSUED:    8541226  USEFUL:     105947  USELESS:    1839575
L1D AVERAGE MISS LATENCY: 23.1756 cycles
L1I TOTAL     ACCESS:   12954938  HIT:   11417373  MISS:    1537565
L1I LOAD      ACCESS:   10708795  HIT:   10587360  MISS:     121435
L1I RFO       ACCESS:          0  HIT:          0  MISS:          0
L1I PREFETCH  ACCESS:    2246143  HIT:     830013  MISS:    1416130
L1I WRITEBACK ACCESS:          0  HIT:          0  MISS:          0
L1I PREFETCH  REQUESTED:    2367013  ISSUED:    2366603  USEFUL:     999673  USELESS:     416372
L1I AVERAGE MISS LATENCY: 35.2393 cycles
L2C TOTAL     ACCESS:    7056595  HIT:    5972668  MISS:    1083927
L2C LOAD      ACCESS:    2056647  HIT:    1823164  MISS:     233483
L2C RFO       ACCESS:     105606  HIT:      57032  MISS:      48574
L2C PREFETCH  ACCESS:    4649295  HIT:    3848672  MISS:     800623
L2C WRITEBACK ACCESS:     245047  HIT:     243800  MISS:       1247
L2C PREFETCH  REQUESTED:    6603131  ISSUED:    6601981  USEFUL:      25143  USELESS:     775481
L2C AVERAGE MISS LATENCY: 61.7612 cycles
LLC TOTAL     ACCESS:    2374497  HIT:    2124061  MISS:     250436
LLC LOAD      ACCESS:     233068  HIT:     191662  MISS:      41406
LLC RFO       ACCESS:      48569  HIT:      34104  MISS:      14465
LLC PREFETCH  ACCESS:    1951223  HIT:    1757168  MISS:     194055
LLC WRITEBACK ACCESS:     141637  HIT:     141127  MISS:        510
LLC PREFETCH  REQUESTED:          0  ISSUED:          0  USEFUL:      16602  USELESS:     177331
LLC AVERAGE MISS LATENCY: 178.231 cycles
Major fault: 0 Minor fault: 7599
I-Shadow cache 408 bytes
Touched + WorthPF tables 24576 bytes 
MMA filter 174 bytes 
FNL filter 272 bytes 
TOTAL PREFETCHER STORAGE SIZE: 98134 bytes
CPU 0 L1I next line prefetcher final stats
CPU 0 L1D next line prefetcher final stats

DRAM Statistics
 CHANNEL 0
 RQ ROW_BUFFER_HIT:      53571  ROW_BUFFER_MISS:     196310
 DBUS_CONGESTED:     109361
 WQ ROW_BUFFER_HIT:      10766  ROW_BUFFER_MISS:      44454  FULL:          0

 AVG_CONGESTED_CYCLE: 5

CPU 0 Branch Prediction Accuracy: 98.1603% MPKI: 3.89124 Average ROB Occupancy at Mispredict: 67.4707

Branch types
NOT_BRANCH: 39423760 78.8475%
BRANCH_DIRECT_JUMP: 551642 1.10328%
BRANCH_INDIRECT: 139368 0.278736%
BRANCH_CONDITIONAL: 7920859 15.8417%
BRANCH_DIRECT_CALL: 776072 1.55214%
BRANCH_INDIRECT_CALL: 194644 0.389288%
BRANCH_RETURN: 993311 1.98662%
BRANCH_OTHER: 0 0%

