Initialize SIGNATURE TABLE
ST_SET: 1
ST_WAY: 256
ST_TAG_BIT: 16
ST_TAG_MASK: ffff

Initialize PATTERN TABLE
PT_SET: 512
PT_WAY: 4
SIG_DELTA_BIT: 7
C_SIG_BIT: 4
C_DELTA_BIT: 4

Initialize PREFETCH FILTER
FILTER_SET: 1024

*** ChampSim Multicore Out-of-Order Simulator ***

Warmup Instructions: 50000000
Simulation Instructions: 50000000
Number of CPUs: 1
LLC sets: 2048
LLC ways: 16
Off-chip DRAM Size: 4096 MB Channels: 1 Width: 64-bit Data Rate: 3200 MT/s

CPU 0 runs /Users/brandon/Documents/CoursesWi22/CSE240C/Homework1/ChampSim/ipc1_public/server_037.champsimtrace.xz
CPU 0 L1I next line prefetcher
CPU 0 L1D next line prefetcher
Heartbeat CPU 0 instructions: 10000001 cycles: 3319688 heartbeat IPC: 3.01233 cumulative IPC: 3.01233 (Simulation time: 0 hr 1 min 52 sec) 
Heartbeat CPU 0 instructions: 20000002 cycles: 6636722 heartbeat IPC: 3.01474 cumulative IPC: 3.01354 (Simulation time: 0 hr 3 min 44 sec) 
Heartbeat CPU 0 instructions: 30000003 cycles: 10001521 heartbeat IPC: 2.97195 cumulative IPC: 2.99954 (Simulation time: 0 hr 5 min 32 sec) 
Heartbeat CPU 0 instructions: 40000000 cycles: 13320192 heartbeat IPC: 3.01325 cumulative IPC: 3.00296 (Simulation time: 0 hr 7 min 18 sec) 
Heartbeat CPU 0 instructions: 50000003 cycles: 16638372 heartbeat IPC: 3.0137 cumulative IPC: 3.0051 (Simulation time: 0 hr 9 min 4 sec) 

Warmup complete CPU 0 instructions: 50000003 cycles: 16638372 (Simulation time: 0 hr 9 min 4 sec) 

Heartbeat CPU 0 instructions: 60000001 cycles: 23031556 heartbeat IPC: 1.56417 cumulative IPC: 1.56417 (Simulation time: 0 hr 10 min 57 sec) 
Heartbeat CPU 0 instructions: 70000000 cycles: 29521466 heartbeat IPC: 1.54085 cumulative IPC: 1.55242 (Simulation time: 0 hr 12 min 49 sec) 
Heartbeat CPU 0 instructions: 80000000 cycles: 35915595 heartbeat IPC: 1.56393 cumulative IPC: 1.55624 (Simulation time: 0 hr 14 min 29 sec) 
Heartbeat CPU 0 instructions: 90000002 cycles: 42321413 heartbeat IPC: 1.56108 cumulative IPC: 1.55745 (Simulation time: 0 hr 15 min 55 sec) 
*** Reached end of trace for Core: 0 Repeating trace: /Users/brandon/Documents/CoursesWi22/CSE240C/Homework1/ChampSim/ipc1_public/server_037.champsimtrace.xz
Heartbeat CPU 0 instructions: 100000000 cycles: 48722901 heartbeat IPC: 1.56214 cumulative IPC: 1.55838 (Simulation time: 0 hr 17 min 5 sec) 
Finished CPU 0 instructions: 50000001 cycles: 32084530 cumulative IPC: 1.55838 (Simulation time: 0 hr 17 min 5 sec) 

ChampSim completed all CPUs

Region of Interest Statistics

CPU 0 cumulative IPC: 1.55838 instructions: 50000001 cycles: 32084530
L1D TOTAL     ACCESS:   18685590  HIT:   17707667  MISS:     977923
L1D LOAD      ACCESS:    6358792  HIT:    5867256  MISS:     491536
L1D RFO       ACCESS:    6205491  HIT:    6141426  MISS:      64065
L1D PREFETCH  ACCESS:    6121307  HIT:    5698985  MISS:     422322
L1D WRITEBACK ACCESS:          0  HIT:          0  MISS:          0
L1D PREFETCH  REQUESTED:    6395882  ISSUED:    6242949  USEFUL:     117275  USELESS:     305051
L1D AVERAGE MISS LATENCY: 29.3289 cycles
L1I TOTAL     ACCESS:   15948102  HIT:   11248606  MISS:    4699496
L1I LOAD      ACCESS:    9453693  HIT:    9447906  MISS:       5787
L1I RFO       ACCESS:          0  HIT:          0  MISS:          0
L1I PREFETCH  ACCESS:    6494409  HIT:    1800700  MISS:    4693709
L1I WRITEBACK ACCESS:          0  HIT:          0  MISS:          0
L1I PREFETCH  REQUESTED:    6681320  ISSUED:    6681317  USEFUL:    4098650  USELESS:     595085
L1I AVERAGE MISS LATENCY: 15.0269 cycles
L2C TOTAL     ACCESS:    8143446  HIT:    7822364  MISS:     321082
L2C LOAD      ACCESS:     490794  HIT:     347047  MISS:     143747
L2C RFO       ACCESS:      63739  HIT:      36286  MISS:      27453
L2C PREFETCH  ACCESS:    7299374  HIT:    7150531  MISS:     148843
L2C WRITEBACK ACCESS:     289539  HIT:     288500  MISS:       1039
L2C PREFETCH  REQUESTED:    7943266  ISSUED:    7924213  USEFUL:       6880  USELESS:     141801
L2C AVERAGE MISS LATENCY: 45.0621 cycles
LLC TOTAL     ACCESS:    1982152  HIT:    1924334  MISS:      57818
LLC LOAD      ACCESS:     143730  HIT:     130794  MISS:      12936
LLC RFO       ACCESS:      27453  HIT:      23022  MISS:       4431
LLC PREFETCH  ACCESS:    1667534  HIT:    1627671  MISS:      39863
LLC WRITEBACK ACCESS:     143435  HIT:     142847  MISS:        588
LLC PREFETCH  REQUESTED:          0  ISSUED:          0  USEFUL:       4446  USELESS:      34436
LLC AVERAGE MISS LATENCY: 167.454 cycles
Major fault: 0 Minor fault: 5653
I-Shadow cache 408 bytes
Touched + WorthPF tables 24576 bytes 
MMA filter 174 bytes 
FNL filter 272 bytes 
TOTAL PREFETCHER STORAGE SIZE: 98134 bytes
CPU 0 L1I next line prefetcher final stats
CPU 0 L1D next line prefetcher final stats

DRAM Statistics
 CHANNEL 0
 RQ ROW_BUFFER_HIT:      10669  ROW_BUFFER_MISS:      46561
 DBUS_CONGESTED:      25587
 WQ ROW_BUFFER_HIT:       1371  ROW_BUFFER_MISS:      11010  FULL:          0

 AVG_CONGESTED_CYCLE: 5

CPU 0 Branch Prediction Accuracy: 99.913% MPKI: 0.15656 Average ROB Occupancy at Mispredict: 227.164

Branch types
NOT_BRANCH: 41001720 82.0034%
BRANCH_DIRECT_JUMP: 541941 1.08388%
BRANCH_INDIRECT: 59716 0.119432%
BRANCH_CONDITIONAL: 5916852 11.8337%
BRANCH_DIRECT_CALL: 1005465 2.01093%
BRANCH_INDIRECT_CALL: 234433 0.468866%
BRANCH_RETURN: 1239877 2.47975%
BRANCH_OTHER: 0 0%

