Initialize SIGNATURE TABLE
ST_SET: 1
ST_WAY: 256
ST_TAG_BIT: 16
ST_TAG_MASK: ffff

Initialize PATTERN TABLE
PT_SET: 512
PT_WAY: 4
SIG_DELTA_BIT: 7
C_SIG_BIT: 4
C_DELTA_BIT: 4

Initialize PREFETCH FILTER
FILTER_SET: 1024

*** ChampSim Multicore Out-of-Order Simulator ***

Warmup Instructions: 50000000
Simulation Instructions: 50000000
Number of CPUs: 1
LLC sets: 2048
LLC ways: 16
Off-chip DRAM Size: 4096 MB Channels: 1 Width: 64-bit Data Rate: 3200 MT/s

CPU 0 runs /Users/brandon/Documents/CoursesWi22/CSE240C/Homework1/ChampSim/ipc1_public/server_016.champsimtrace.xz
CPU 0 L1I next line prefetcher
CPU 0 L1D next line prefetcher
Heartbeat CPU 0 instructions: 10000000 cycles: 3498773 heartbeat IPC: 2.85814 cumulative IPC: 2.85814 (Simulation time: 0 hr 1 min 32 sec) 
Heartbeat CPU 0 instructions: 20000000 cycles: 6997948 heartbeat IPC: 2.85782 cumulative IPC: 2.85798 (Simulation time: 0 hr 3 min 18 sec) 
Heartbeat CPU 0 instructions: 30000001 cycles: 10491727 heartbeat IPC: 2.86223 cumulative IPC: 2.8594 (Simulation time: 0 hr 5 min 7 sec) 
Heartbeat CPU 0 instructions: 40000000 cycles: 13790224 heartbeat IPC: 3.03168 cumulative IPC: 2.90061 (Simulation time: 0 hr 6 min 0 sec) 
Heartbeat CPU 0 instructions: 50000002 cycles: 17025689 heartbeat IPC: 3.09075 cumulative IPC: 2.93674 (Simulation time: 0 hr 6 min 38 sec) 

Warmup complete CPU 0 instructions: 50000002 cycles: 17025689 (Simulation time: 0 hr 6 min 38 sec) 

Heartbeat CPU 0 instructions: 60000000 cycles: 24981676 heartbeat IPC: 1.25691 cumulative IPC: 1.25691 (Simulation time: 0 hr 7 min 21 sec) 
Heartbeat CPU 0 instructions: 70000001 cycles: 31738023 heartbeat IPC: 1.48009 cumulative IPC: 1.3594 (Simulation time: 0 hr 9 min 18 sec) 
Heartbeat CPU 0 instructions: 80000001 cycles: 38609749 heartbeat IPC: 1.45524 cumulative IPC: 1.38991 (Simulation time: 0 hr 11 min 12 sec) 
Heartbeat CPU 0 instructions: 90000000 cycles: 45258596 heartbeat IPC: 1.50402 cumulative IPC: 1.41679 (Simulation time: 0 hr 13 min 6 sec) 
Heartbeat CPU 0 instructions: 100000000 cycles: 52037872 heartbeat IPC: 1.47508 cumulative IPC: 1.42807 (Simulation time: 0 hr 15 min 6 sec) 
Finished CPU 0 instructions: 50000002 cycles: 35012184 cumulative IPC: 1.42807 (Simulation time: 0 hr 15 min 6 sec) 

ChampSim completed all CPUs

Region of Interest Statistics

CPU 0 cumulative IPC: 1.42807 instructions: 50000002 cycles: 35012184
L1D TOTAL     ACCESS:   17911666  HIT:   16644301  MISS:    1267365
L1D LOAD      ACCESS:    6501340  HIT:    5927136  MISS:     574204
L1D RFO       ACCESS:    5194196  HIT:    4972047  MISS:     222149
L1D PREFETCH  ACCESS:    6216130  HIT:    5745118  MISS:     471012
L1D WRITEBACK ACCESS:          0  HIT:          0  MISS:          0
L1D PREFETCH  REQUESTED:    6544689  ISSUED:    6438656  USEFUL:     111879  USELESS:     359151
L1D AVERAGE MISS LATENCY: 24.1504 cycles
L1I TOTAL     ACCESS:   13917078  HIT:   10948513  MISS:    2968565
L1I LOAD      ACCESS:    9877019  HIT:    9823839  MISS:      53180
L1I RFO       ACCESS:          0  HIT:          0  MISS:          0
L1I PREFETCH  ACCESS:    4040059  HIT:    1124674  MISS:    2915385
L1I WRITEBACK ACCESS:          0  HIT:          0  MISS:          0
L1I PREFETCH  REQUESTED:    4169538  ISSUED:    4169078  USEFUL:    2113184  USELESS:     802149
L1I AVERAGE MISS LATENCY: 18.7293 cycles
L2C TOTAL     ACCESS:    5691501  HIT:    5050857  MISS:     640644
L2C LOAD      ACCESS:     550150  HIT:     436270  MISS:     113880
L2C RFO       ACCESS:     220401  HIT:     153858  MISS:      66543
L2C PREFETCH  ACCESS:    4492689  HIT:    4034533  MISS:     458156
L2C WRITEBACK ACCESS:     428261  HIT:     426196  MISS:       2065
L2C PREFETCH  REQUESTED:    5628684  ISSUED:    5619926  USEFUL:      11289  USELESS:     445832
L2C AVERAGE MISS LATENCY: 40.6129 cycles
LLC TOTAL     ACCESS:    2062336  HIT:    2024792  MISS:      37544
LLC LOAD      ACCESS:     113662  HIT:     109460  MISS:       4202
LLC RFO       ACCESS:      66449  HIT:      53033  MISS:      13416
LLC PREFETCH  ACCESS:    1769188  HIT:    1749395  MISS:      19793
LLC WRITEBACK ACCESS:     113037  HIT:     112904  MISS:        133
LLC PREFETCH  REQUESTED:          0  ISSUED:          0  USEFUL:       1856  USELESS:      17259
LLC AVERAGE MISS LATENCY: 177.92 cycles
Major fault: 0 Minor fault: 2366
I-Shadow cache 408 bytes
Touched + WorthPF tables 24576 bytes 
MMA filter 174 bytes 
FNL filter 272 bytes 
TOTAL PREFETCHER STORAGE SIZE: 98134 bytes
CPU 0 L1I next line prefetcher final stats
CPU 0 L1D next line prefetcher final stats

DRAM Statistics
 CHANNEL 0
 RQ ROW_BUFFER_HIT:      11608  ROW_BUFFER_MISS:      25803
 DBUS_CONGESTED:      24562
 WQ ROW_BUFFER_HIT:       1605  ROW_BUFFER_MISS:      14797  FULL:          0

 AVG_CONGESTED_CYCLE: 6

CPU 0 Branch Prediction Accuracy: 99.7225% MPKI: 0.50376 Average ROB Occupancy at Mispredict: 133.305

Branch types
NOT_BRANCH: 40924071 81.8481%
BRANCH_DIRECT_JUMP: 487046 0.974092%
BRANCH_INDIRECT: 169159 0.338318%
BRANCH_CONDITIONAL: 6640839 13.2817%
BRANCH_DIRECT_CALL: 755592 1.51118%
BRANCH_INDIRECT_CALL: 133962 0.267924%
BRANCH_RETURN: 889572 1.77914%
BRANCH_OTHER: 0 0%

