Initialize SIGNATURE TABLE
ST_SET: 1
ST_WAY: 256
ST_TAG_BIT: 16
ST_TAG_MASK: ffff

Initialize PATTERN TABLE
PT_SET: 512
PT_WAY: 4
SIG_DELTA_BIT: 7
C_SIG_BIT: 4
C_DELTA_BIT: 4

Initialize PREFETCH FILTER
FILTER_SET: 1024

*** ChampSim Multicore Out-of-Order Simulator ***

Warmup Instructions: 50000000
Simulation Instructions: 50000000
Number of CPUs: 1
LLC sets: 2048
LLC ways: 16
Off-chip DRAM Size: 4096 MB Channels: 1 Width: 64-bit Data Rate: 3200 MT/s

CPU 0 runs /Users/brandon/Documents/CoursesWi22/CSE240C/Homework1/ChampSim/ipc1_public/server_026.champsimtrace.xz
CPU 0 L1I next line prefetcher
CPU 0 L1D next line prefetcher
Heartbeat CPU 0 instructions: 10000000 cycles: 3527338 heartbeat IPC: 2.835 cumulative IPC: 2.835 (Simulation time: 0 hr 1 min 52 sec) 
Heartbeat CPU 0 instructions: 20000002 cycles: 7060913 heartbeat IPC: 2.83 cumulative IPC: 2.8325 (Simulation time: 0 hr 3 min 46 sec) 
Heartbeat CPU 0 instructions: 30000000 cycles: 10584759 heartbeat IPC: 2.83781 cumulative IPC: 2.83426 (Simulation time: 0 hr 5 min 33 sec) 
Heartbeat CPU 0 instructions: 40000003 cycles: 14116603 heartbeat IPC: 2.83138 cumulative IPC: 2.83354 (Simulation time: 0 hr 7 min 18 sec) 
Heartbeat CPU 0 instructions: 50000000 cycles: 17641010 heartbeat IPC: 2.83736 cumulative IPC: 2.8343 (Simulation time: 0 hr 9 min 5 sec) 

Warmup complete CPU 0 instructions: 50000004 cycles: 17641011 (Simulation time: 0 hr 9 min 5 sec) 

*** Reached end of trace for Core: 0 Repeating trace: /Users/brandon/Documents/CoursesWi22/CSE240C/Homework1/ChampSim/ipc1_public/server_026.champsimtrace.xz
Heartbeat CPU 0 instructions: 60000000 cycles: 24560983 heartbeat IPC: 1.44509 cumulative IPC: 1.44509 (Simulation time: 0 hr 10 min 55 sec) 
Heartbeat CPU 0 instructions: 70000003 cycles: 31369077 heartbeat IPC: 1.46884 cumulative IPC: 1.45687 (Simulation time: 0 hr 12 min 45 sec) 
Heartbeat CPU 0 instructions: 80000002 cycles: 38281091 heartbeat IPC: 1.44676 cumulative IPC: 1.45348 (Simulation time: 0 hr 14 min 23 sec) 
Heartbeat CPU 0 instructions: 90000002 cycles: 45095746 heartbeat IPC: 1.46743 cumulative IPC: 1.45694 (Simulation time: 0 hr 15 min 46 sec) 
Heartbeat CPU 0 instructions: 100000000 cycles: 51987746 heartbeat IPC: 1.45096 cumulative IPC: 1.45574 (Simulation time: 0 hr 17 min 0 sec) 
Finished CPU 0 instructions: 50000000 cycles: 34346736 cumulative IPC: 1.45574 (Simulation time: 0 hr 17 min 0 sec) 

ChampSim completed all CPUs

Region of Interest Statistics

CPU 0 cumulative IPC: 1.45574 instructions: 50000000 cycles: 34346736
L1D TOTAL     ACCESS:   19774716  HIT:   18129877  MISS:    1644839
L1D LOAD      ACCESS:    6934883  HIT:    6204468  MISS:     730415
L1D RFO       ACCESS:    6242189  HIT:    5955404  MISS:     286785
L1D PREFETCH  ACCESS:    6597644  HIT:    5970005  MISS:     627639
L1D WRITEBACK ACCESS:          0  HIT:          0  MISS:          0
L1D PREFETCH  REQUESTED:    6983856  ISSUED:    6840081  USEFUL:     150144  USELESS:     477506
L1D AVERAGE MISS LATENCY: 24.5906 cycles
L1I TOTAL     ACCESS:   14935556  HIT:   10956792  MISS:    3978764
L1I LOAD      ACCESS:    9503788  HIT:    9432508  MISS:      71280
L1I RFO       ACCESS:          0  HIT:          0  MISS:          0
L1I PREFETCH  ACCESS:    5431768  HIT:    1524284  MISS:    3907484
L1I WRITEBACK ACCESS:          0  HIT:          0  MISS:          0
L1I PREFETCH  REQUESTED:    5627808  ISSUED:    5627083  USEFUL:    2795842  USELESS:    1111660
L1I AVERAGE MISS LATENCY: 19.0023 cycles
L2C TOTAL     ACCESS:    7509451  HIT:    6596015  MISS:     913436
L2C LOAD      ACCESS:     720718  HIT:     563041  MISS:     157677
L2C RFO       ACCESS:     284791  HIT:     178254  MISS:     106537
L2C PREFETCH  ACCESS:    5942774  HIT:    5297335  MISS:     645439
L2C WRITEBACK ACCESS:     561168  HIT:     557385  MISS:       3783
L2C PREFETCH  REQUESTED:    7182860  ISSUED:    7169493  USEFUL:      15996  USELESS:     629101
L2C AVERAGE MISS LATENCY: 38.8503 cycles
LLC TOTAL     ACCESS:    2823224  HIT:    2787367  MISS:      35857
LLC LOAD      ACCESS:     157392  HIT:     153810  MISS:       3582
LLC RFO       ACCESS:     106521  HIT:      91850  MISS:      14671
LLC PREFETCH  ACCESS:    2383156  HIT:    2365773  MISS:      17383
LLC WRITEBACK ACCESS:     176155  HIT:     175934  MISS:        221
LLC PREFETCH  REQUESTED:          0  ISSUED:          0  USEFUL:       1056  USELESS:      16431
LLC AVERAGE MISS LATENCY: 188.888 cycles
Major fault: 0 Minor fault: 2166
I-Shadow cache 408 bytes
Touched + WorthPF tables 24576 bytes 
MMA filter 174 bytes 
FNL filter 272 bytes 
TOTAL PREFETCHER STORAGE SIZE: 98134 bytes
CPU 0 L1I next line prefetcher final stats
CPU 0 L1D next line prefetcher final stats

DRAM Statistics
 CHANNEL 0
 RQ ROW_BUFFER_HIT:      12928  ROW_BUFFER_MISS:      22691
 DBUS_CONGESTED:      24546
 WQ ROW_BUFFER_HIT:       1610  ROW_BUFFER_MISS:      14317  FULL:          0

 AVG_CONGESTED_CYCLE: 6

CPU 0 Branch Prediction Accuracy: 99.822% MPKI: 0.32584 Average ROB Occupancy at Mispredict: 203.584

Branch types
NOT_BRANCH: 40848578 81.6972%
BRANCH_DIRECT_JUMP: 522045 1.04409%
BRANCH_INDIRECT: 204034 0.408068%
BRANCH_CONDITIONAL: 6212963 12.4259%
BRANCH_DIRECT_CALL: 932393 1.86479%
BRANCH_INDIRECT_CALL: 173764 0.347528%
BRANCH_RETURN: 1106152 2.2123%
BRANCH_OTHER: 0 0%

