Initialize SIGNATURE TABLE
ST_SET: 1
ST_WAY: 256
ST_TAG_BIT: 16
ST_TAG_MASK: ffff

Initialize PATTERN TABLE
PT_SET: 512
PT_WAY: 4
SIG_DELTA_BIT: 7
C_SIG_BIT: 4
C_DELTA_BIT: 4

Initialize PREFETCH FILTER
FILTER_SET: 1024

*** ChampSim Multicore Out-of-Order Simulator ***

Warmup Instructions: 50000000
Simulation Instructions: 50000000
Number of CPUs: 1
LLC sets: 2048
LLC ways: 16
Off-chip DRAM Size: 4096 MB Channels: 1 Width: 64-bit Data Rate: 3200 MT/s

CPU 0 runs /Users/brandon/Documents/CoursesWi22/CSE240C/Homework1/ChampSim/ipc1_public/server_002.champsimtrace.xz
CPU 0 L1I next line prefetcher
CPU 0 L1D next line prefetcher
Heartbeat CPU 0 instructions: 10000000 cycles: 3581222 heartbeat IPC: 2.79234 cumulative IPC: 2.79234 (Simulation time: 0 hr 1 min 27 sec) 
Heartbeat CPU 0 instructions: 20000002 cycles: 7169993 heartbeat IPC: 2.78647 cumulative IPC: 2.7894 (Simulation time: 0 hr 3 min 10 sec) 
Heartbeat CPU 0 instructions: 30000000 cycles: 10710723 heartbeat IPC: 2.82428 cumulative IPC: 2.80093 (Simulation time: 0 hr 4 min 56 sec) 
Heartbeat CPU 0 instructions: 40000000 cycles: 14260968 heartbeat IPC: 2.81671 cumulative IPC: 2.80486 (Simulation time: 0 hr 6 min 52 sec) 
Heartbeat CPU 0 instructions: 50000001 cycles: 17808739 heartbeat IPC: 2.81867 cumulative IPC: 2.80761 (Simulation time: 0 hr 8 min 40 sec) 

Warmup complete CPU 0 instructions: 50000001 cycles: 17808739 (Simulation time: 0 hr 8 min 40 sec) 

Heartbeat CPU 0 instructions: 60000000 cycles: 24252977 heartbeat IPC: 1.55177 cumulative IPC: 1.55177 (Simulation time: 0 hr 10 min 33 sec) 
Heartbeat CPU 0 instructions: 70000003 cycles: 30688366 heartbeat IPC: 1.55391 cumulative IPC: 1.55284 (Simulation time: 0 hr 12 min 23 sec) 
Heartbeat CPU 0 instructions: 80000003 cycles: 37125903 heartbeat IPC: 1.55339 cumulative IPC: 1.55302 (Simulation time: 0 hr 14 min 17 sec) 
Heartbeat CPU 0 instructions: 90000002 cycles: 43561866 heartbeat IPC: 1.55377 cumulative IPC: 1.55321 (Simulation time: 0 hr 16 min 7 sec) 
Heartbeat CPU 0 instructions: 100000003 cycles: 49995978 heartbeat IPC: 1.55422 cumulative IPC: 1.55341 (Simulation time: 0 hr 17 min 3 sec) 
Finished CPU 0 instructions: 50000002 cycles: 32187239 cumulative IPC: 1.55341 (Simulation time: 0 hr 17 min 3 sec) 

ChampSim completed all CPUs

Region of Interest Statistics

CPU 0 cumulative IPC: 1.55341 instructions: 50000002 cycles: 32187239
L1D TOTAL     ACCESS:   21522614  HIT:   21521806  MISS:        808
L1D LOAD      ACCESS:    6600939  HIT:    6600565  MISS:        374
L1D RFO       ACCESS:    8433006  HIT:    8432892  MISS:        114
L1D PREFETCH  ACCESS:    6488669  HIT:    6488349  MISS:        320
L1D WRITEBACK ACCESS:          0  HIT:          0  MISS:          0
L1D PREFETCH  REQUESTED:    6600997  ISSUED:    6496040  USEFUL:         91  USELESS:        230
L1D AVERAGE MISS LATENCY: 41.3812 cycles
L1I TOTAL     ACCESS:   14660479  HIT:   13452512  MISS:    1207967
L1I LOAD      ACCESS:    9810711  HIT:    9742934  MISS:      67777
L1I RFO       ACCESS:          0  HIT:          0  MISS:          0
L1I PREFETCH  ACCESS:    4849768  HIT:    3709578  MISS:    1140190
L1I WRITEBACK ACCESS:          0  HIT:          0  MISS:          0
L1I PREFETCH  REQUESTED:    4985056  ISSUED:    4985056  USEFUL:     982668  USELESS:     157520
L1I AVERAGE MISS LATENCY: 14.0379 cycles
L2C TOTAL     ACCESS:    1501136  HIT:    1500795  MISS:        341
L2C LOAD      ACCESS:      48325  HIT:      48238  MISS:         87
L2C RFO       ACCESS:        113  HIT:        108  MISS:          5
L2C PREFETCH  ACCESS:    1452363  HIT:    1452114  MISS:        249
L2C WRITEBACK ACCESS:        335  HIT:        335  MISS:          0
L2C PREFETCH  REQUESTED:     822019  ISSUED:     821972  USEFUL:         92  USELESS:        153
L2C AVERAGE MISS LATENCY: 167.674 cycles
LLC TOTAL     ACCESS:     276266  HIT:     275304  MISS:        962
LLC LOAD      ACCESS:         87  HIT:         72  MISS:         15
LLC RFO       ACCESS:          5  HIT:          3  MISS:          2
LLC PREFETCH  ACCESS:     276088  HIT:     275146  MISS:        942
LLC WRITEBACK ACCESS:         86  HIT:         83  MISS:          3
LLC PREFETCH  REQUESTED:          0  ISSUED:          0  USEFUL:         16  USELESS:        228
LLC AVERAGE MISS LATENCY: 542.54 cycles
Major fault: 0 Minor fault: 1867
I-Shadow cache 408 bytes
Touched + WorthPF tables 24576 bytes 
MMA filter 174 bytes 
FNL filter 272 bytes 
TOTAL PREFETCHER STORAGE SIZE: 98134 bytes
CPU 0 L1I next line prefetcher final stats
CPU 0 L1D next line prefetcher final stats

DRAM Statistics
 CHANNEL 0
 RQ ROW_BUFFER_HIT:        222  ROW_BUFFER_MISS:        737
 DBUS_CONGESTED:        753
 WQ ROW_BUFFER_HIT:        102  ROW_BUFFER_MISS:        544  FULL:          0

 AVG_CONGESTED_CYCLE: 6

CPU 0 Branch Prediction Accuracy: 99.8789% MPKI: 0.20388 Average ROB Occupancy at Mispredict: 276.822

Branch types
NOT_BRANCH: 41580689 83.1614%
BRANCH_DIRECT_JUMP: 461629 0.923258%
BRANCH_INDIRECT: 0 0%
BRANCH_CONDITIONAL: 5376435 10.7529%
BRANCH_DIRECT_CALL: 1175774 2.35155%
BRANCH_INDIRECT_CALL: 114840 0.22968%
BRANCH_RETURN: 1290625 2.58125%
BRANCH_OTHER: 0 0%

