Initialize SIGNATURE TABLE
ST_SET: 1
ST_WAY: 256
ST_TAG_BIT: 16
ST_TAG_MASK: ffff

Initialize PATTERN TABLE
PT_SET: 512
PT_WAY: 4
SIG_DELTA_BIT: 7
C_SIG_BIT: 4
C_DELTA_BIT: 4

Initialize PREFETCH FILTER
FILTER_SET: 1024

*** ChampSim Multicore Out-of-Order Simulator ***

Warmup Instructions: 50000000
Simulation Instructions: 50000000
Number of CPUs: 1
LLC sets: 2048
LLC ways: 16
Off-chip DRAM Size: 4096 MB Channels: 1 Width: 64-bit Data Rate: 3200 MT/s

CPU 0 runs /Users/brandon/Documents/CoursesWi22/CSE240C/Homework1/ChampSim/ipc1_public/server_036.champsimtrace.xz
CPU 0 L1I next line prefetcher
CPU 0 L1D next line prefetcher
Heartbeat CPU 0 instructions: 10000000 cycles: 3458960 heartbeat IPC: 2.89104 cumulative IPC: 2.89104 (Simulation time: 0 hr 1 min 49 sec) 
Heartbeat CPU 0 instructions: 20000000 cycles: 6924752 heartbeat IPC: 2.88534 cumulative IPC: 2.88819 (Simulation time: 0 hr 3 min 38 sec) 
Heartbeat CPU 0 instructions: 30000003 cycles: 10432789 heartbeat IPC: 2.8506 cumulative IPC: 2.87555 (Simulation time: 0 hr 5 min 24 sec) 
Heartbeat CPU 0 instructions: 40000000 cycles: 13895290 heartbeat IPC: 2.88808 cumulative IPC: 2.87867 (Simulation time: 0 hr 7 min 8 sec) 
Heartbeat CPU 0 instructions: 50000002 cycles: 17356992 heartbeat IPC: 2.88875 cumulative IPC: 2.88068 (Simulation time: 0 hr 8 min 53 sec) 

Warmup complete CPU 0 instructions: 50000002 cycles: 17356992 (Simulation time: 0 hr 8 min 53 sec) 

Heartbeat CPU 0 instructions: 60000000 cycles: 22933064 heartbeat IPC: 1.79338 cumulative IPC: 1.79338 (Simulation time: 0 hr 10 min 30 sec) 
Heartbeat CPU 0 instructions: 70000001 cycles: 28456940 heartbeat IPC: 1.81032 cumulative IPC: 1.80181 (Simulation time: 0 hr 12 min 8 sec) 
Heartbeat CPU 0 instructions: 80000001 cycles: 34019376 heartbeat IPC: 1.79777 cumulative IPC: 1.80046 (Simulation time: 0 hr 13 min 34 sec) 
Heartbeat CPU 0 instructions: 90000002 cycles: 39552894 heartbeat IPC: 1.80717 cumulative IPC: 1.80213 (Simulation time: 0 hr 14 min 57 sec) 
Heartbeat CPU 0 instructions: 100000001 cycles: 45075713 heartbeat IPC: 1.81067 cumulative IPC: 1.80384 (Simulation time: 0 hr 16 min 9 sec) 
Finished CPU 0 instructions: 50000003 cycles: 27718722 cumulative IPC: 1.80384 (Simulation time: 0 hr 16 min 9 sec) 

ChampSim completed all CPUs

Region of Interest Statistics

CPU 0 cumulative IPC: 1.80384 instructions: 50000003 cycles: 27718722
L1D TOTAL     ACCESS:   20410862  HIT:   20350706  MISS:      60156
L1D LOAD      ACCESS:    6636464  HIT:    6601666  MISS:      34798
L1D RFO       ACCESS:    7343339  HIT:    7336122  MISS:       7217
L1D PREFETCH  ACCESS:    6431059  HIT:    6412918  MISS:      18141
L1D WRITEBACK ACCESS:          0  HIT:          0  MISS:          0
L1D PREFETCH  REQUESTED:    6637444  ISSUED:    6462117  USEFUL:       5467  USELESS:      12675
L1D AVERAGE MISS LATENCY: 17.7463 cycles
L1I TOTAL     ACCESS:   15243093  HIT:   11031440  MISS:    4211653
L1I LOAD      ACCESS:    8930927  HIT:    8896931  MISS:      33996
L1I RFO       ACCESS:          0  HIT:          0  MISS:          0
L1I PREFETCH  ACCESS:    6312166  HIT:    2134509  MISS:    4177657
L1I WRITEBACK ACCESS:          0  HIT:          0  MISS:          0
L1I PREFETCH  REQUESTED:    6452854  ISSUED:    6452854  USEFUL:    3782850  USELESS:     394813
L1I AVERAGE MISS LATENCY: 14.6144 cycles
L2C TOTAL     ACCESS:    5947724  HIT:    5945497  MISS:       2227
L2C LOAD      ACCESS:      45069  HIT:      44602  MISS:        467
L2C RFO       ACCESS:       7209  HIT:       7158  MISS:         51
L2C PREFETCH  ACCESS:    5879822  HIT:    5878122  MISS:       1700
L2C WRITEBACK ACCESS:      15624  HIT:      15615  MISS:          9
L2C PREFETCH  REQUESTED:    5778087  ISSUED:    5778029  USEFUL:        201  USELESS:        930
L2C AVERAGE MISS LATENCY: 161.033 cycles
LLC TOTAL     ACCESS:     859653  HIT:     856693  MISS:       2960
LLC LOAD      ACCESS:        465  HIT:        150  MISS:        315
LLC RFO       ACCESS:         51  HIT:         21  MISS:         30
LLC PREFETCH  ACCESS:     858278  HIT:     855673  MISS:       2605
LLC WRITEBACK ACCESS:        859  HIT:        849  MISS:         10
LLC PREFETCH  REQUESTED:          0  ISSUED:          0  USEFUL:         66  USELESS:        752
LLC AVERAGE MISS LATENCY: 275.912 cycles
Major fault: 0 Minor fault: 1926
I-Shadow cache 408 bytes
Touched + WorthPF tables 24576 bytes 
MMA filter 174 bytes 
FNL filter 272 bytes 
TOTAL PREFETCHER STORAGE SIZE: 98134 bytes
CPU 0 L1I next line prefetcher final stats
CPU 0 L1D next line prefetcher final stats

DRAM Statistics
 CHANNEL 0
 RQ ROW_BUFFER_HIT:        735  ROW_BUFFER_MISS:       2215
 DBUS_CONGESTED:       2010
 WQ ROW_BUFFER_HIT:        322  ROW_BUFFER_MISS:       1542  FULL:          0

 AVG_CONGESTED_CYCLE: 6

CPU 0 Branch Prediction Accuracy: 99.8717% MPKI: 0.21174 Average ROB Occupancy at Mispredict: 240.933

Branch types
NOT_BRANCH: 41748435 83.4969%
BRANCH_DIRECT_JUMP: 468564 0.937128%
BRANCH_INDIRECT: 0 0%
BRANCH_CONDITIONAL: 5599754 11.1995%
BRANCH_DIRECT_CALL: 885105 1.77021%
BRANCH_INDIRECT_CALL: 206338 0.412676%
BRANCH_RETURN: 1091467 2.18293%
BRANCH_OTHER: 0 0%

