Initialize SIGNATURE TABLE
ST_SET: 1
ST_WAY: 256
ST_TAG_BIT: 16
ST_TAG_MASK: ffff

Initialize PATTERN TABLE
PT_SET: 512
PT_WAY: 4
SIG_DELTA_BIT: 7
C_SIG_BIT: 4
C_DELTA_BIT: 4

Initialize PREFETCH FILTER
FILTER_SET: 1024

*** ChampSim Multicore Out-of-Order Simulator ***

Warmup Instructions: 50000000
Simulation Instructions: 50000000
Number of CPUs: 1
LLC sets: 2048
LLC ways: 16
Off-chip DRAM Size: 4096 MB Channels: 1 Width: 64-bit Data Rate: 3200 MT/s

CPU 0 runs /Users/brandon/Documents/CoursesWi22/CSE240C/Homework1/ChampSim/ipc1_public/spec_x264_001.champsimtrace.xz
CPU 0 L1I next line prefetcher
CPU 0 L1D next line prefetcher
Heartbeat CPU 0 instructions: 10000002 cycles: 3060448 heartbeat IPC: 3.2675 cumulative IPC: 3.2675 (Simulation time: 0 hr 1 min 11 sec) 
Heartbeat CPU 0 instructions: 20000002 cycles: 6111347 heartbeat IPC: 3.27772 cumulative IPC: 3.2726 (Simulation time: 0 hr 2 min 25 sec) 
Heartbeat CPU 0 instructions: 30000002 cycles: 9147568 heartbeat IPC: 3.29357 cumulative IPC: 3.27956 (Simulation time: 0 hr 3 min 37 sec) 
Heartbeat CPU 0 instructions: 40000000 cycles: 12192784 heartbeat IPC: 3.28384 cumulative IPC: 3.28063 (Simulation time: 0 hr 4 min 48 sec) 
Heartbeat CPU 0 instructions: 50000000 cycles: 15236168 heartbeat IPC: 3.28582 cumulative IPC: 3.28167 (Simulation time: 0 hr 5 min 57 sec) 

Warmup complete CPU 0 instructions: 50000004 cycles: 15236169 (Simulation time: 0 hr 5 min 57 sec) 

Heartbeat CPU 0 instructions: 60000002 cycles: 21160218 heartbeat IPC: 1.68803 cumulative IPC: 1.68803 (Simulation time: 0 hr 6 min 35 sec) 
Heartbeat CPU 0 instructions: 70000000 cycles: 27065914 heartbeat IPC: 1.69328 cumulative IPC: 1.69065 (Simulation time: 0 hr 7 min 11 sec) 
Heartbeat CPU 0 instructions: 80000003 cycles: 33115793 heartbeat IPC: 1.65293 cumulative IPC: 1.67789 (Simulation time: 0 hr 7 min 48 sec) 
Heartbeat CPU 0 instructions: 90000000 cycles: 39148314 heartbeat IPC: 1.65768 cumulative IPC: 1.67279 (Simulation time: 0 hr 8 min 25 sec) 
Heartbeat CPU 0 instructions: 100000002 cycles: 45041536 heartbeat IPC: 1.69686 cumulative IPC: 1.67755 (Simulation time: 0 hr 9 min 5 sec) 
Finished CPU 0 instructions: 50000002 cycles: 29805368 cumulative IPC: 1.67755 (Simulation time: 0 hr 9 min 5 sec) 

ChampSim completed all CPUs

Region of Interest Statistics

CPU 0 cumulative IPC: 1.67755 instructions: 50000002 cycles: 29805368
L1D TOTAL     ACCESS:   12960688  HIT:   12799634  MISS:     161054
L1D LOAD      ACCESS:    5091411  HIT:    5036322  MISS:      55089
L1D RFO       ACCESS:    2883191  HIT:    2848793  MISS:      34398
L1D PREFETCH  ACCESS:    4986086  HIT:    4914519  MISS:      71567
L1D WRITEBACK ACCESS:          0  HIT:          0  MISS:          0
L1D PREFETCH  REQUESTED:    5108197  ISSUED:    5041014  USEFUL:      25705  USELESS:      45671
L1D AVERAGE MISS LATENCY: 39.2798 cycles
L1I TOTAL     ACCESS:    8565782  HIT:    8193299  MISS:     372483
L1I LOAD      ACCESS:    8034515  HIT:    8030937  MISS:       3578
L1I RFO       ACCESS:          0  HIT:          0  MISS:          0
L1I PREFETCH  ACCESS:     531267  HIT:     162362  MISS:     368905
L1I WRITEBACK ACCESS:          0  HIT:          0  MISS:          0
L1I PREFETCH  REQUESTED:     540659  ISSUED:     540659  USEFUL:     297385  USELESS:      71550
L1I AVERAGE MISS LATENCY: 14.8159 cycles
L2C TOTAL     ACCESS:     756895  HIT:     717574  MISS:      39321
L2C LOAD      ACCESS:      57311  HIT:      51794  MISS:       5517
L2C RFO       ACCESS:      34221  HIT:      22161  MISS:      12060
L2C PREFETCH  ACCESS:     622203  HIT:     600535  MISS:      21668
L2C WRITEBACK ACCESS:      43160  HIT:      43084  MISS:         76
L2C PREFETCH  REQUESTED:     598584  ISSUED:     597636  USEFUL:       8973  USELESS:      12884
L2C AVERAGE MISS LATENCY: 100.595 cycles
LLC TOTAL     ACCESS:     137575  HIT:     108425  MISS:      29150
LLC LOAD      ACCESS:       5515  HIT:       3401  MISS:       2114
LLC RFO       ACCESS:      12060  HIT:        448  MISS:      11612
LLC PREFETCH  ACCESS:     106397  HIT:      91070  MISS:      15327
LLC WRITEBACK ACCESS:      13603  HIT:      13506  MISS:         97
LLC PREFETCH  REQUESTED:          0  ISSUED:          0  USEFUL:       1736  USELESS:      14117
LLC AVERAGE MISS LATENCY: 162.104 cycles
Major fault: 0 Minor fault: 1284
I-Shadow cache 408 bytes
Touched + WorthPF tables 24576 bytes 
MMA filter 174 bytes 
FNL filter 272 bytes 
TOTAL PREFETCHER STORAGE SIZE: 98134 bytes
CPU 0 L1I next line prefetcher final stats
CPU 0 L1D next line prefetcher final stats

DRAM Statistics
 CHANNEL 0
 RQ ROW_BUFFER_HIT:      10097  ROW_BUFFER_MISS:      18956
 DBUS_CONGESTED:      12740
 WQ ROW_BUFFER_HIT:       2966  ROW_BUFFER_MISS:       9739  FULL:          0

 AVG_CONGESTED_CYCLE: 6

CPU 0 Branch Prediction Accuracy: 97.1633% MPKI: 1.73704 Average ROB Occupancy at Mispredict: 43.0338

Branch types
NOT_BRANCH: 46937921 93.8758%
BRANCH_DIRECT_JUMP: 170816 0.341632%
BRANCH_INDIRECT: 0 0%
BRANCH_CONDITIONAL: 2532774 5.06555%
BRANCH_DIRECT_CALL: 114227 0.228454%
BRANCH_INDIRECT_CALL: 64863 0.129726%
BRANCH_RETURN: 179089 0.358178%
BRANCH_OTHER: 0 0%

