Initialize SIGNATURE TABLE
ST_SET: 1
ST_WAY: 256
ST_TAG_BIT: 16
ST_TAG_MASK: ffff

Initialize PATTERN TABLE
PT_SET: 512
PT_WAY: 4
SIG_DELTA_BIT: 7
C_SIG_BIT: 4
C_DELTA_BIT: 4

Initialize PREFETCH FILTER
FILTER_SET: 1024

*** ChampSim Multicore Out-of-Order Simulator ***

Warmup Instructions: 50000000
Simulation Instructions: 50000000
Number of CPUs: 1
LLC sets: 2048
LLC ways: 16
Off-chip DRAM Size: 4096 MB Channels: 1 Width: 64-bit Data Rate: 3200 MT/s

CPU 0 runs /Users/brandon/Documents/CoursesWi22/CSE240C/Homework1/ChampSim/ipc1_public/spec_gobmk_001.champsimtrace.xz
CPU 0 L1I next line prefetcher
CPU 0 L1D next line prefetcher
Heartbeat CPU 0 instructions: 10000003 cycles: 3508416 heartbeat IPC: 2.85029 cumulative IPC: 2.85029 (Simulation time: 0 hr 1 min 29 sec) 
Heartbeat CPU 0 instructions: 20000002 cycles: 6989433 heartbeat IPC: 2.87272 cumulative IPC: 2.86146 (Simulation time: 0 hr 3 min 2 sec) 
Heartbeat CPU 0 instructions: 30000002 cycles: 10508583 heartbeat IPC: 2.8416 cumulative IPC: 2.85481 (Simulation time: 0 hr 4 min 31 sec) 
Heartbeat CPU 0 instructions: 40000001 cycles: 14027749 heartbeat IPC: 2.84158 cumulative IPC: 2.85149 (Simulation time: 0 hr 5 min 59 sec) 
Heartbeat CPU 0 instructions: 50000001 cycles: 17568099 heartbeat IPC: 2.82458 cumulative IPC: 2.84607 (Simulation time: 0 hr 7 min 23 sec) 

Warmup complete CPU 0 instructions: 50000001 cycles: 17568099 (Simulation time: 0 hr 7 min 23 sec) 

Heartbeat CPU 0 instructions: 60000000 cycles: 26416145 heartbeat IPC: 1.13019 cumulative IPC: 1.13019 (Simulation time: 0 hr 8 min 26 sec) 
Heartbeat CPU 0 instructions: 70000002 cycles: 34926128 heartbeat IPC: 1.17509 cumulative IPC: 1.1522 (Simulation time: 0 hr 9 min 31 sec) 
Heartbeat CPU 0 instructions: 80000003 cycles: 43845432 heartbeat IPC: 1.12116 cumulative IPC: 1.14167 (Simulation time: 0 hr 10 min 35 sec) 
Heartbeat CPU 0 instructions: 90000001 cycles: 52408927 heartbeat IPC: 1.16775 cumulative IPC: 1.14808 (Simulation time: 0 hr 11 min 40 sec) 
Heartbeat CPU 0 instructions: 100000003 cycles: 61287870 heartbeat IPC: 1.12626 cumulative IPC: 1.14365 (Simulation time: 0 hr 12 min 45 sec) 
Finished CPU 0 instructions: 50000002 cycles: 43719771 cumulative IPC: 1.14365 (Simulation time: 0 hr 12 min 45 sec) 

ChampSim completed all CPUs

Region of Interest Statistics

CPU 0 cumulative IPC: 1.14365 instructions: 50000002 cycles: 43719771
L1D TOTAL     ACCESS:   18016964  HIT:   17637403  MISS:     379561
L1D LOAD      ACCESS:    7226870  HIT:    7091869  MISS:     135001
L1D RFO       ACCESS:    3702211  HIT:    3597677  MISS:     104534
L1D PREFETCH  ACCESS:    7087883  HIT:    6947857  MISS:     140026
L1D WRITEBACK ACCESS:          0  HIT:          0  MISS:          0
L1D PREFETCH  REQUESTED:    7232186  ISSUED:    7149348  USEFUL:      45316  USELESS:      94715
L1D AVERAGE MISS LATENCY: 32.8706 cycles
L1I TOTAL     ACCESS:   12214589  HIT:   11021527  MISS:    1193062
L1I LOAD      ACCESS:    8959197  HIT:    8822271  MISS:     136926
L1I RFO       ACCESS:          0  HIT:          0  MISS:          0
L1I PREFETCH  ACCESS:    3255392  HIT:    2199256  MISS:    1056136
L1I WRITEBACK ACCESS:          0  HIT:          0  MISS:          0
L1I PREFETCH  REQUESTED:    3372070  ISSUED:    3372067  USEFUL:     567846  USELESS:     488266
L1I AVERAGE MISS LATENCY: 15.0736 cycles
L2C TOTAL     ACCESS:    2368128  HIT:    2242355  MISS:     125773
L2C LOAD      ACCESS:     228500  HIT:     192810  MISS:      35690
L2C RFO       ACCESS:     104187  HIT:      70634  MISS:      33553
L2C PREFETCH  ACCESS:    1896138  HIT:    1839616  MISS:      56522
L2C WRITEBACK ACCESS:     139303  HIT:     139295  MISS:          8
L2C PREFETCH  REQUESTED:    1804374  ISSUED:    1804205  USEFUL:       5149  USELESS:      51762
L2C AVERAGE MISS LATENCY: 62.9669 cycles
LLC TOTAL     ACCESS:     341688  HIT:     304852  MISS:      36836
LLC LOAD      ACCESS:      35689  HIT:      27575  MISS:       8114
LLC RFO       ACCESS:      33553  HIT:      28115  MISS:       5438
LLC PREFETCH  ACCESS:     228382  HIT:     205351  MISS:      23031
LLC WRITEBACK ACCESS:      44064  HIT:      43811  MISS:        253
LLC PREFETCH  REQUESTED:          0  ISSUED:          0  USEFUL:       1551  USELESS:      19671
LLC AVERAGE MISS LATENCY: 180.301 cycles
Major fault: 0 Minor fault: 4157
I-Shadow cache 408 bytes
Touched + WorthPF tables 24576 bytes 
MMA filter 174 bytes 
FNL filter 272 bytes 
TOTAL PREFETCHER STORAGE SIZE: 98134 bytes
CPU 0 L1I next line prefetcher final stats
CPU 0 L1D next line prefetcher final stats

DRAM Statistics
 CHANNEL 0
 RQ ROW_BUFFER_HIT:       3628  ROW_BUFFER_MISS:      32955
 DBUS_CONGESTED:      22553
 WQ ROW_BUFFER_HIT:       1346  ROW_BUFFER_MISS:      14360  FULL:          0

 AVG_CONGESTED_CYCLE: 4

CPU 0 Branch Prediction Accuracy: 94.7729% MPKI: 9.72684 Average ROB Occupancy at Mispredict: 53.2683

Branch types
NOT_BRANCH: 40695382 81.3908%
BRANCH_DIRECT_JUMP: 422107 0.844214%
BRANCH_INDIRECT: 65 0.00013%
BRANCH_CONDITIONAL: 8105005 16.21%
BRANCH_DIRECT_CALL: 374913 0.749826%
BRANCH_INDIRECT_CALL: 13657 0.027314%
BRANCH_RETURN: 388556 0.777112%
BRANCH_OTHER: 0 0%

