Initialize SIGNATURE TABLE
ST_SET: 1
ST_WAY: 256
ST_TAG_BIT: 16
ST_TAG_MASK: ffff

Initialize PATTERN TABLE
PT_SET: 512
PT_WAY: 4
SIG_DELTA_BIT: 7
C_SIG_BIT: 4
C_DELTA_BIT: 4

Initialize PREFETCH FILTER
FILTER_SET: 1024

*** ChampSim Multicore Out-of-Order Simulator ***

Warmup Instructions: 50000000
Simulation Instructions: 50000000
Number of CPUs: 1
LLC sets: 2048
LLC ways: 16
Off-chip DRAM Size: 4096 MB Channels: 1 Width: 64-bit Data Rate: 3200 MT/s

CPU 0 runs /Users/brandon/Documents/CoursesWi22/CSE240C/Homework1/ChampSim/ipc1_public/spec_perlbench_001.champsimtrace.xz
CPU 0 L1I next line prefetcher
CPU 0 L1D next line prefetcher
Heartbeat CPU 0 instructions: 10000000 cycles: 3275790 heartbeat IPC: 3.0527 cumulative IPC: 3.0527 (Simulation time: 0 hr 1 min 37 sec) 
Heartbeat CPU 0 instructions: 20000000 cycles: 6540419 heartbeat IPC: 3.06314 cumulative IPC: 3.05791 (Simulation time: 0 hr 3 min 19 sec) 
Heartbeat CPU 0 instructions: 30000002 cycles: 9856854 heartbeat IPC: 3.01529 cumulative IPC: 3.04357 (Simulation time: 0 hr 5 min 1 sec) 
Heartbeat CPU 0 instructions: 40000002 cycles: 13112248 heartbeat IPC: 3.07182 cumulative IPC: 3.05058 (Simulation time: 0 hr 6 min 34 sec) 
Heartbeat CPU 0 instructions: 50000001 cycles: 16386120 heartbeat IPC: 3.05449 cumulative IPC: 3.05136 (Simulation time: 0 hr 8 min 2 sec) 

Warmup complete CPU 0 instructions: 50000001 cycles: 16386120 (Simulation time: 0 hr 8 min 2 sec) 

Heartbeat CPU 0 instructions: 60000001 cycles: 24684556 heartbeat IPC: 1.20505 cumulative IPC: 1.20505 (Simulation time: 0 hr 9 min 28 sec) 
Heartbeat CPU 0 instructions: 70000000 cycles: 32816786 heartbeat IPC: 1.22967 cumulative IPC: 1.21724 (Simulation time: 0 hr 10 min 57 sec) 
Heartbeat CPU 0 instructions: 80000000 cycles: 41223215 heartbeat IPC: 1.18957 cumulative IPC: 1.20787 (Simulation time: 0 hr 12 min 25 sec) 
Heartbeat CPU 0 instructions: 90000000 cycles: 46935994 heartbeat IPC: 1.75046 cumulative IPC: 1.30933 (Simulation time: 0 hr 13 min 22 sec) 
Heartbeat CPU 0 instructions: 100000002 cycles: 52806814 heartbeat IPC: 1.70334 cumulative IPC: 1.37285 (Simulation time: 0 hr 14 min 22 sec) 
Finished CPU 0 instructions: 50000001 cycles: 36420694 cumulative IPC: 1.37285 (Simulation time: 0 hr 14 min 22 sec) 

ChampSim completed all CPUs

Region of Interest Statistics

CPU 0 cumulative IPC: 1.37285 instructions: 50000001 cycles: 36420694
L1D TOTAL     ACCESS:   20700432  HIT:   20285325  MISS:     415107
L1D LOAD      ACCESS:    7179675  HIT:    6966002  MISS:     213673
L1D RFO       ACCESS:    6542436  HIT:    6523924  MISS:      18512
L1D PREFETCH  ACCESS:    6978321  HIT:    6795399  MISS:     182922
L1D WRITEBACK ACCESS:          0  HIT:          0  MISS:          0
L1D PREFETCH  REQUESTED:    7195341  ISSUED:    7078913  USEFUL:      55227  USELESS:     127690
L1D AVERAGE MISS LATENCY: 57.6889 cycles
L1I TOTAL     ACCESS:   10869592  HIT:   10187711  MISS:     681881
L1I LOAD      ACCESS:    9152928  HIT:    9068950  MISS:      83978
L1I RFO       ACCESS:          0  HIT:          0  MISS:          0
L1I PREFETCH  ACCESS:    1716664  HIT:    1118761  MISS:     597903
L1I WRITEBACK ACCESS:          0  HIT:          0  MISS:          0
L1I PREFETCH  REQUESTED:    1775485  ISSUED:    1775472  USEFUL:     369946  USELESS:     227952
L1I AVERAGE MISS LATENCY: 17.2495 cycles
L2C TOTAL     ACCESS:    1515454  HIT:    1346126  MISS:     169328
L2C LOAD      ACCESS:     280185  HIT:     198676  MISS:      81509
L2C RFO       ACCESS:      18276  HIT:      12836  MISS:       5440
L2C PREFETCH  ACCESS:    1138045  HIT:    1056050  MISS:      81995
L2C WRITEBACK ACCESS:      78948  HIT:      78564  MISS:        384
L2C PREFETCH  REQUESTED:    1156662  ISSUED:    1156645  USEFUL:       6513  USELESS:      75572
L2C AVERAGE MISS LATENCY: 117.6 cycles
LLC TOTAL     ACCESS:     443340  HIT:     298550  MISS:     144790
LLC LOAD      ACCESS:      81508  HIT:      33291  MISS:      48217
LLC RFO       ACCESS:       5440  HIT:       2458  MISS:       2982
LLC PREFETCH  ACCESS:     330937  HIT:     237887  MISS:      93050
LLC WRITEBACK ACCESS:      25455  HIT:      24914  MISS:        541
LLC PREFETCH  REQUESTED:          0  ISSUED:          0  USEFUL:      15515  USELESS:      77682
LLC AVERAGE MISS LATENCY: 159.88 cycles
Major fault: 0 Minor fault: 6365
I-Shadow cache 408 bytes
Touched + WorthPF tables 24576 bytes 
MMA filter 174 bytes 
FNL filter 272 bytes 
TOTAL PREFETCHER STORAGE SIZE: 98134 bytes
CPU 0 L1I next line prefetcher final stats
CPU 0 L1D next line prefetcher final stats

DRAM Statistics
 CHANNEL 0
 RQ ROW_BUFFER_HIT:      32404  ROW_BUFFER_MISS:     111844
 DBUS_CONGESTED:      61050
 WQ ROW_BUFFER_HIT:       4197  ROW_BUFFER_MISS:      13271  FULL:          0

 AVG_CONGESTED_CYCLE: 4

CPU 0 Branch Prediction Accuracy: 98.7418% MPKI: 2.47758 Average ROB Occupancy at Mispredict: 78.0609

Branch types
NOT_BRANCH: 40154100 80.3082%
BRANCH_DIRECT_JUMP: 817094 1.63419%
BRANCH_INDIRECT: 303787 0.607574%
BRANCH_CONDITIONAL: 7492103 14.9842%
BRANCH_DIRECT_CALL: 471777 0.943554%
BRANCH_INDIRECT_CALL: 144546 0.289092%
BRANCH_RETURN: 616324 1.23265%
BRANCH_OTHER: 0 0%

