Initialize SIGNATURE TABLE
ST_SET: 1
ST_WAY: 256
ST_TAG_BIT: 16
ST_TAG_MASK: ffff

Initialize PATTERN TABLE
PT_SET: 512
PT_WAY: 4
SIG_DELTA_BIT: 7
C_SIG_BIT: 4
C_DELTA_BIT: 4

Initialize PREFETCH FILTER
FILTER_SET: 1024

*** ChampSim Multicore Out-of-Order Simulator ***

Warmup Instructions: 50000000
Simulation Instructions: 50000000
Number of CPUs: 1
LLC sets: 2048
LLC ways: 16
Off-chip DRAM Size: 4096 MB Channels: 1 Width: 64-bit Data Rate: 3200 MT/s

CPU 0 runs /Users/brandon/Documents/CoursesWi22/CSE240C/Homework1/ChampSim/ipc1_public/client_005.champsimtrace.xz
L1I D-JOLT instruction prefetcher has been constructed!
CPU 0 L1D next line prefetcher
Heartbeat CPU 0 instructions: 10000001 cycles: 3291584 heartbeat IPC: 3.03805 cumulative IPC: 3.03805 (Simulation time: 0 hr 1 min 32 sec) 
Heartbeat CPU 0 instructions: 20000002 cycles: 6698125 heartbeat IPC: 2.93553 cumulative IPC: 2.98591 (Simulation time: 0 hr 3 min 27 sec) 
Heartbeat CPU 0 instructions: 30000001 cycles: 10391503 heartbeat IPC: 2.70755 cumulative IPC: 2.88697 (Simulation time: 0 hr 5 min 34 sec) 
Heartbeat CPU 0 instructions: 40000000 cycles: 14069478 heartbeat IPC: 2.71889 cumulative IPC: 2.84303 (Simulation time: 0 hr 7 min 39 sec) 
Heartbeat CPU 0 instructions: 50000001 cycles: 17343115 heartbeat IPC: 3.05471 cumulative IPC: 2.88299 (Simulation time: 0 hr 9 min 27 sec) 

Warmup complete CPU 0 instructions: 50000001 cycles: 17343115 (Simulation time: 0 hr 9 min 27 sec) 

Heartbeat CPU 0 instructions: 60000002 cycles: 25349062 heartbeat IPC: 1.24907 cumulative IPC: 1.24907 (Simulation time: 0 hr 10 min 59 sec) 
Heartbeat CPU 0 instructions: 70000003 cycles: 32782552 heartbeat IPC: 1.34526 cumulative IPC: 1.29538 (Simulation time: 0 hr 12 min 38 sec) 
Heartbeat CPU 0 instructions: 80000001 cycles: 39673190 heartbeat IPC: 1.45124 cumulative IPC: 1.34348 (Simulation time: 0 hr 14 min 29 sec) 
Heartbeat CPU 0 instructions: 90000002 cycles: 49222504 heartbeat IPC: 1.0472 cumulative IPC: 1.25473 (Simulation time: 0 hr 16 min 15 sec) 
Heartbeat CPU 0 instructions: 100000002 cycles: 57054748 heartbeat IPC: 1.27677 cumulative IPC: 1.25908 (Simulation time: 0 hr 17 min 8 sec) 
Finished CPU 0 instructions: 50000001 cycles: 39711633 cumulative IPC: 1.25908 (Simulation time: 0 hr 17 min 8 sec) 

ChampSim completed all CPUs

Region of Interest Statistics

CPU 0 cumulative IPC: 1.25908 instructions: 50000001 cycles: 39711633
L1D TOTAL     ACCESS:   19665388  HIT:   19129580  MISS:     535808
L1D LOAD      ACCESS:    6662634  HIT:    6490850  MISS:     171784
L1D RFO       ACCESS:    6792039  HIT:    6607518  MISS:     184521
L1D PREFETCH  ACCESS:    6210715  HIT:    6031212  MISS:     179503
L1D WRITEBACK ACCESS:          0  HIT:          0  MISS:          0
L1D PREFETCH  REQUESTED:    6686546  ISSUED:    6316645  USEFUL:      59369  USELESS:     120022
L1D AVERAGE MISS LATENCY: 94.9882 cycles
L1I TOTAL     ACCESS:   18313283  HIT:   15752102  MISS:    2561181
L1I LOAD      ACCESS:    9368850  HIT:    9169913  MISS:     198937
L1I RFO       ACCESS:          0  HIT:          0  MISS:          0
L1I PREFETCH  ACCESS:    8944433  HIT:    6582189  MISS:    2362244
L1I WRITEBACK ACCESS:          0  HIT:          0  MISS:          0
L1I PREFETCH  REQUESTED:    9468877  ISSUED:    9292346  USEFUL:     922006  USELESS:    1440159
L1I AVERAGE MISS LATENCY: 16.3599 cycles
L2C TOTAL     ACCESS:    4373666  HIT:    3974881  MISS:     398785
L2C LOAD      ACCESS:     286460  HIT:     186491  MISS:      99969
L2C RFO       ACCESS:     180827  HIT:      30911  MISS:     149916
L2C PREFETCH  ACCESS:    3653321  HIT:    3505594  MISS:     147727
L2C WRITEBACK ACCESS:     253058  HIT:     251885  MISS:       1173
L2C PREFETCH  REQUESTED:    2005073  ISSUED:    2004908  USEFUL:      19873  USELESS:     126836
L2C AVERAGE MISS LATENCY: 124.972 cycles
LLC TOTAL     ACCESS:     944265  HIT:     645364  MISS:     298901
LLC LOAD      ACCESS:      99956  HIT:      52881  MISS:      47075
LLC RFO       ACCESS:     149915  HIT:      15605  MISS:     134310
LLC PREFETCH  ACCESS:     493863  HIT:     377140  MISS:     116723
LLC WRITEBACK ACCESS:     200531  HIT:     199738  MISS:        793
LLC PREFETCH  REQUESTED:          0  ISSUED:          0  USEFUL:      26409  USELESS:      88936
LLC AVERAGE MISS LATENCY: 166.843 cycles
Major fault: 0 Minor fault: 6090
CPU 0 L1D next line prefetcher final stats

DRAM Statistics
 CHANNEL 0
 RQ ROW_BUFFER_HIT:      95066  ROW_BUFFER_MISS:     203041
 DBUS_CONGESTED:     231753
 WQ ROW_BUFFER_HIT:      53617  ROW_BUFFER_MISS:     128933  FULL:          0

 AVG_CONGESTED_CYCLE: 6

CPU 0 Branch Prediction Accuracy: 97.8666% MPKI: 3.9013 Average ROB Occupancy at Mispredict: 85.5801

Branch types
NOT_BRANCH: 40856330 81.7127%
BRANCH_DIRECT_JUMP: 484667 0.969334%
BRANCH_INDIRECT: 85086 0.170172%
BRANCH_CONDITIONAL: 6230887 12.4618%
BRANCH_DIRECT_CALL: 1028917 2.05783%
BRANCH_INDIRECT_CALL: 141825 0.28365%
BRANCH_RETURN: 1171986 2.34397%
BRANCH_OTHER: 0 0%

