Initialize SIGNATURE TABLE
ST_SET: 1
ST_WAY: 256
ST_TAG_BIT: 16
ST_TAG_MASK: ffff

Initialize PATTERN TABLE
PT_SET: 512
PT_WAY: 4
SIG_DELTA_BIT: 7
C_SIG_BIT: 4
C_DELTA_BIT: 4

Initialize PREFETCH FILTER
FILTER_SET: 1024

*** ChampSim Multicore Out-of-Order Simulator ***

Warmup Instructions: 50000000
Simulation Instructions: 50000000
Number of CPUs: 1
LLC sets: 2048
LLC ways: 16
Off-chip DRAM Size: 4096 MB Channels: 1 Width: 64-bit Data Rate: 3200 MT/s

CPU 0 runs /Users/brandon/Documents/CoursesWi22/CSE240C/Homework1/ChampSim/ipc1_public/client_003.champsimtrace.xz
L1I D-JOLT instruction prefetcher has been constructed!
CPU 0 L1D next line prefetcher
Heartbeat CPU 0 instructions: 10000000 cycles: 3478299 heartbeat IPC: 2.87497 cumulative IPC: 2.87497 (Simulation time: 0 hr 1 min 38 sec) 
Heartbeat CPU 0 instructions: 20000002 cycles: 6932344 heartbeat IPC: 2.89516 cumulative IPC: 2.88503 (Simulation time: 0 hr 3 min 33 sec) 
Heartbeat CPU 0 instructions: 30000003 cycles: 10493248 heartbeat IPC: 2.80828 cumulative IPC: 2.85898 (Simulation time: 0 hr 5 min 32 sec) 
Heartbeat CPU 0 instructions: 40000001 cycles: 14109690 heartbeat IPC: 2.76515 cumulative IPC: 2.83493 (Simulation time: 0 hr 7 min 31 sec) 
Heartbeat CPU 0 instructions: 50000003 cycles: 17654774 heartbeat IPC: 2.82081 cumulative IPC: 2.8321 (Simulation time: 0 hr 9 min 27 sec) 

Warmup complete CPU 0 instructions: 50000003 cycles: 17654774 (Simulation time: 0 hr 9 min 27 sec) 

Heartbeat CPU 0 instructions: 60000002 cycles: 24046527 heartbeat IPC: 1.56452 cumulative IPC: 1.56452 (Simulation time: 0 hr 11 min 4 sec) 
Heartbeat CPU 0 instructions: 70000001 cycles: 30153351 heartbeat IPC: 1.63751 cumulative IPC: 1.60018 (Simulation time: 0 hr 12 min 45 sec) 
Heartbeat CPU 0 instructions: 80000001 cycles: 37219192 heartbeat IPC: 1.41526 cumulative IPC: 1.5334 (Simulation time: 0 hr 14 min 20 sec) 
Heartbeat CPU 0 instructions: 90000000 cycles: 46266534 heartbeat IPC: 1.1053 cumulative IPC: 1.39803 (Simulation time: 0 hr 15 min 30 sec) 
Heartbeat CPU 0 instructions: 100000003 cycles: 57115116 heartbeat IPC: 0.92178 cumulative IPC: 1.26709 (Simulation time: 0 hr 16 min 42 sec) 
Finished CPU 0 instructions: 50000000 cycles: 39460342 cumulative IPC: 1.26709 (Simulation time: 0 hr 16 min 42 sec) 

ChampSim completed all CPUs

Region of Interest Statistics

CPU 0 cumulative IPC: 1.26709 instructions: 50000000 cycles: 39460342
L1D TOTAL     ACCESS:   17654081  HIT:   17158120  MISS:     495961
L1D LOAD      ACCESS:    6045413  HIT:    5920381  MISS:     125032
L1D RFO       ACCESS:    5945449  HIT:    5711047  MISS:     234402
L1D PREFETCH  ACCESS:    5663219  HIT:    5526692  MISS:     136527
L1D WRITEBACK ACCESS:          0  HIT:          0  MISS:          0
L1D PREFETCH  REQUESTED:    6087161  ISSUED:    5946224  USEFUL:      68654  USELESS:      67920
L1D AVERAGE MISS LATENCY: 123.087 cycles
L1I TOTAL     ACCESS:   15371477  HIT:   13732585  MISS:    1638892
L1I LOAD      ACCESS:    9480931  HIT:    9357550  MISS:     123381
L1I RFO       ACCESS:          0  HIT:          0  MISS:          0
L1I PREFETCH  ACCESS:    5890546  HIT:    4375035  MISS:    1515511
L1I WRITEBACK ACCESS:          0  HIT:          0  MISS:          0
L1I PREFETCH  REQUESTED:    6172783  ISSUED:    6095088  USEFUL:     650503  USELESS:     865074
L1I AVERAGE MISS LATENCY: 16.784 cycles
L2C TOTAL     ACCESS:    3040118  HIT:    2634369  MISS:     405749
L2C LOAD      ACCESS:     170782  HIT:     118850  MISS:      51932
L2C RFO       ACCESS:     232290  HIT:      24976  MISS:     207314
L2C PREFETCH  ACCESS:    2367760  HIT:    2222497  MISS:     145263
L2C WRITEBACK ACCESS:     269286  HIT:     268046  MISS:       1240
L2C PREFETCH  REQUESTED:    1445856  ISSUED:    1445755  USEFUL:      16122  USELESS:     129140
L2C AVERAGE MISS LATENCY: 162.218 cycles
LLC TOTAL     ACCESS:     982467  HIT:     692899  MISS:     289568
LLC LOAD      ACCESS:      51873  HIT:      35783  MISS:      16090
LLC RFO       ACCESS:     207309  HIT:      34579  MISS:     172730
LLC PREFETCH  ACCESS:     498197  HIT:     397867  MISS:     100330
LLC WRITEBACK ACCESS:     225088  HIT:     224670  MISS:        418
LLC PREFETCH  REQUESTED:          0  ISSUED:          0  USEFUL:      12398  USELESS:      88136
LLC AVERAGE MISS LATENCY: 227.119 cycles
Major fault: 0 Minor fault: 5045
CPU 0 L1D next line prefetcher final stats

DRAM Statistics
 CHANNEL 0
 RQ ROW_BUFFER_HIT:     100132  ROW_BUFFER_MISS:     189013
 DBUS_CONGESTED:     253396
 WQ ROW_BUFFER_HIT:      60383  ROW_BUFFER_MISS:     118365  FULL:          0

 AVG_CONGESTED_CYCLE: 6

CPU 0 Branch Prediction Accuracy: 98.6631% MPKI: 2.66884 Average ROB Occupancy at Mispredict: 75.5991

Branch types
NOT_BRANCH: 40018769 80.0375%
BRANCH_DIRECT_JUMP: 370861 0.741722%
BRANCH_INDIRECT: 83252 0.166504%
BRANCH_CONDITIONAL: 7877435 15.7549%
BRANCH_DIRECT_CALL: 722315 1.44463%
BRANCH_INDIRECT_CALL: 101901 0.203802%
BRANCH_RETURN: 825355 1.65071%
BRANCH_OTHER: 0 0%

