Initialize SIGNATURE TABLE
ST_SET: 1
ST_WAY: 256
ST_TAG_BIT: 16
ST_TAG_MASK: ffff

Initialize PATTERN TABLE
PT_SET: 512
PT_WAY: 4
SIG_DELTA_BIT: 7
C_SIG_BIT: 4
C_DELTA_BIT: 4

Initialize PREFETCH FILTER
FILTER_SET: 1024

*** ChampSim Multicore Out-of-Order Simulator ***

Warmup Instructions: 50000000
Simulation Instructions: 50000000
Number of CPUs: 1
LLC sets: 2048
LLC ways: 16
Off-chip DRAM Size: 4096 MB Channels: 1 Width: 64-bit Data Rate: 3200 MT/s

CPU 0 runs /Users/brandon/Documents/CoursesWi22/CSE240C/Homework1/ChampSim/ipc1_public/client_008.champsimtrace.xz
L1I D-JOLT instruction prefetcher has been constructed!
CPU 0 L1D next line prefetcher
Heartbeat CPU 0 instructions: 10000001 cycles: 3755109 heartbeat IPC: 2.66304 cumulative IPC: 2.66304 (Simulation time: 0 hr 1 min 45 sec) 
Heartbeat CPU 0 instructions: 20000001 cycles: 7532555 heartbeat IPC: 2.64729 cumulative IPC: 2.65514 (Simulation time: 0 hr 3 min 49 sec) 
Heartbeat CPU 0 instructions: 30000000 cycles: 11259911 heartbeat IPC: 2.68287 cumulative IPC: 2.66432 (Simulation time: 0 hr 5 min 52 sec) 
Heartbeat CPU 0 instructions: 40000002 cycles: 15055628 heartbeat IPC: 2.63455 cumulative IPC: 2.65681 (Simulation time: 0 hr 7 min 56 sec) 
Heartbeat CPU 0 instructions: 50000003 cycles: 18848877 heartbeat IPC: 2.63626 cumulative IPC: 2.65268 (Simulation time: 0 hr 9 min 59 sec) 

Warmup complete CPU 0 instructions: 50000003 cycles: 18848877 (Simulation time: 0 hr 9 min 59 sec) 

Heartbeat CPU 0 instructions: 60000000 cycles: 27072162 heartbeat IPC: 1.21606 cumulative IPC: 1.21606 (Simulation time: 0 hr 11 min 57 sec) 
Heartbeat CPU 0 instructions: 70000000 cycles: 35024571 heartbeat IPC: 1.25748 cumulative IPC: 1.23642 (Simulation time: 0 hr 14 min 5 sec) 
Heartbeat CPU 0 instructions: 80000000 cycles: 44146362 heartbeat IPC: 1.09628 cumulative IPC: 1.18589 (Simulation time: 0 hr 15 min 40 sec) 
Heartbeat CPU 0 instructions: 90000001 cycles: 51553968 heartbeat IPC: 1.34996 cumulative IPC: 1.22305 (Simulation time: 0 hr 16 min 49 sec) 
Heartbeat CPU 0 instructions: 100000001 cycles: 59597152 heartbeat IPC: 1.24329 cumulative IPC: 1.22705 (Simulation time: 0 hr 17 min 32 sec) 
Finished CPU 0 instructions: 50000002 cycles: 40748276 cumulative IPC: 1.22705 (Simulation time: 0 hr 17 min 32 sec) 

ChampSim completed all CPUs

Region of Interest Statistics

CPU 0 cumulative IPC: 1.22705 instructions: 50000002 cycles: 40748276
L1D TOTAL     ACCESS:   20479557  HIT:   18851141  MISS:    1628416
L1D LOAD      ACCESS:    8062394  HIT:    7262837  MISS:     799557
L1D RFO       ACCESS:    4813401  HIT:    4703861  MISS:     109540
L1D PREFETCH  ACCESS:    7603762  HIT:    6884443  MISS:     719319
L1D WRITEBACK ACCESS:          0  HIT:          0  MISS:          0
L1D PREFETCH  REQUESTED:    8131799  ISSUED:    7962937  USEFUL:     199549  USELESS:     519775
L1D AVERAGE MISS LATENCY: 33.049 cycles
L1I TOTAL     ACCESS:   15806214  HIT:   14298084  MISS:    1508130
L1I LOAD      ACCESS:    9771248  HIT:    9712288  MISS:      58960
L1I RFO       ACCESS:          0  HIT:          0  MISS:          0
L1I PREFETCH  ACCESS:    6034966  HIT:    4585796  MISS:    1449170
L1I WRITEBACK ACCESS:          0  HIT:          0  MISS:          0
L1I PREFETCH  REQUESTED:    6378456  ISSUED:    6356890  USEFUL:     817144  USELESS:     632139
L1I AVERAGE MISS LATENCY: 16.8561 cycles
L2C TOTAL     ACCESS:    4381409  HIT:    3916878  MISS:     464531
L2C LOAD      ACCESS:     788044  HIT:     617130  MISS:     170914
L2C RFO       ACCESS:     104300  HIT:      18018  MISS:      86282
L2C PREFETCH  ACCESS:    3307069  HIT:    3100262  MISS:     206807
L2C WRITEBACK ACCESS:     181996  HIT:     181468  MISS:        528
L2C PREFETCH  REQUESTED:    3108455  ISSUED:    3086003  USEFUL:      20145  USELESS:     188647
L2C AVERAGE MISS LATENCY: 75.3238 cycles
LLC TOTAL     ACCESS:    1558416  HIT:    1372777  MISS:     185639
LLC LOAD      ACCESS:     170817  HIT:     147670  MISS:      23147
LLC RFO       ACCESS:      86278  HIT:      15706  MISS:      70572
LLC PREFETCH  ACCESS:    1164904  HIT:    1073311  MISS:      91593
LLC WRITEBACK ACCESS:     136417  HIT:     136090  MISS:        327
LLC PREFETCH  REQUESTED:          0  ISSUED:          0  USEFUL:      24691  USELESS:      75037
LLC AVERAGE MISS LATENCY: 167.766 cycles
Major fault: 0 Minor fault: 5306
CPU 0 L1D next line prefetcher final stats

DRAM Statistics
 CHANNEL 0
 RQ ROW_BUFFER_HIT:      51599  ROW_BUFFER_MISS:     133703
 DBUS_CONGESTED:      97096
 WQ ROW_BUFFER_HIT:      24297  ROW_BUFFER_MISS:      65255  FULL:          0

 AVG_CONGESTED_CYCLE: 6

CPU 0 Branch Prediction Accuracy: 98.6482% MPKI: 3.1551 Average ROB Occupancy at Mispredict: 96.6617

Branch types
NOT_BRANCH: 38329598 76.6592%
BRANCH_DIRECT_JUMP: 510116 1.02023%
BRANCH_INDIRECT: 225730 0.45146%
BRANCH_CONDITIONAL: 8366762 16.7335%
BRANCH_DIRECT_CALL: 600748 1.2015%
BRANCH_INDIRECT_CALL: 682990 1.36598%
BRANCH_RETURN: 1283974 2.56795%
BRANCH_OTHER: 0 0%

