Initialize SIGNATURE TABLE
ST_SET: 1
ST_WAY: 256
ST_TAG_BIT: 16
ST_TAG_MASK: ffff

Initialize PATTERN TABLE
PT_SET: 512
PT_WAY: 4
SIG_DELTA_BIT: 7
C_SIG_BIT: 4
C_DELTA_BIT: 4

Initialize PREFETCH FILTER
FILTER_SET: 1024

*** ChampSim Multicore Out-of-Order Simulator ***

Warmup Instructions: 50000000
Simulation Instructions: 50000000
Number of CPUs: 1
LLC sets: 2048
LLC ways: 16
Off-chip DRAM Size: 4096 MB Channels: 1 Width: 64-bit Data Rate: 3200 MT/s

CPU 0 runs /Users/brandon/Documents/CoursesWi22/CSE240C/Homework1/ChampSim/ipc1_public/client_001.champsimtrace.xz
L1I D-JOLT instruction prefetcher has been constructed!
CPU 0 L1D next line prefetcher
Heartbeat CPU 0 instructions: 10000003 cycles: 3410622 heartbeat IPC: 2.93202 cumulative IPC: 2.93202 (Simulation time: 0 hr 1 min 31 sec) 
Heartbeat CPU 0 instructions: 20000001 cycles: 7119258 heartbeat IPC: 2.69641 cumulative IPC: 2.80928 (Simulation time: 0 hr 3 min 21 sec) 
Heartbeat CPU 0 instructions: 30000001 cycles: 10482131 heartbeat IPC: 2.97365 cumulative IPC: 2.86201 (Simulation time: 0 hr 5 min 6 sec) 
Heartbeat CPU 0 instructions: 40000003 cycles: 14352264 heartbeat IPC: 2.58389 cumulative IPC: 2.78702 (Simulation time: 0 hr 6 min 57 sec) 
Heartbeat CPU 0 instructions: 50000003 cycles: 17649655 heartbeat IPC: 3.0327 cumulative IPC: 2.83292 (Simulation time: 0 hr 8 min 41 sec) 

Warmup complete CPU 0 instructions: 50000003 cycles: 17649655 (Simulation time: 0 hr 8 min 41 sec) 

Heartbeat CPU 0 instructions: 60000000 cycles: 26694934 heartbeat IPC: 1.10555 cumulative IPC: 1.10555 (Simulation time: 0 hr 10 min 19 sec) 
Heartbeat CPU 0 instructions: 70000000 cycles: 33083843 heartbeat IPC: 1.56521 cumulative IPC: 1.29582 (Simulation time: 0 hr 11 min 45 sec) 
Heartbeat CPU 0 instructions: 80000002 cycles: 42428250 heartbeat IPC: 1.07016 cumulative IPC: 1.21072 (Simulation time: 0 hr 13 min 34 sec) 
Heartbeat CPU 0 instructions: 90000000 cycles: 48680479 heartbeat IPC: 1.59943 cumulative IPC: 1.28904 (Simulation time: 0 hr 14 min 55 sec) 
Heartbeat CPU 0 instructions: 100000002 cycles: 57529416 heartbeat IPC: 1.13008 cumulative IPC: 1.25377 (Simulation time: 0 hr 16 min 14 sec) 
Finished CPU 0 instructions: 50000003 cycles: 39879762 cumulative IPC: 1.25377 (Simulation time: 0 hr 16 min 14 sec) 

ChampSim completed all CPUs

Region of Interest Statistics

CPU 0 cumulative IPC: 1.25377 instructions: 50000003 cycles: 39879762
L1D TOTAL     ACCESS:   21211430  HIT:   20374966  MISS:     836464
L1D LOAD      ACCESS:    8807957  HIT:    8413051  MISS:     394906
L1D RFO       ACCESS:    4039812  HIT:    3980730  MISS:      59082
L1D PREFETCH  ACCESS:    8363661  HIT:    7981185  MISS:     382476
L1D WRITEBACK ACCESS:          0  HIT:          0  MISS:          0
L1D PREFETCH  REQUESTED:    8853282  ISSUED:    8544056  USEFUL:     129450  USELESS:     253000
L1D AVERAGE MISS LATENCY: 48.2689 cycles
L1I TOTAL     ACCESS:   13546036  HIT:   12695482  MISS:     850554
L1I LOAD      ACCESS:    8946815  HIT:    8930537  MISS:      16278
L1I RFO       ACCESS:          0  HIT:          0  MISS:          0
L1I PREFETCH  ACCESS:    4599221  HIT:    3764945  MISS:     834276
L1I WRITEBACK ACCESS:          0  HIT:          0  MISS:          0
L1I PREFETCH  REQUESTED:    4855827  ISSUED:    4695088  USEFUL:     438067  USELESS:     396095
L1I AVERAGE MISS LATENCY: 18.0287 cycles
L2C TOTAL     ACCESS:    2578200  HIT:    2272079  MISS:     306121
L2C LOAD      ACCESS:     381377  HIT:     267314  MISS:     114063
L2C RFO       ACCESS:      58320  HIT:      21325  MISS:      36995
L2C PREFETCH  ACCESS:    1948912  HIT:    1794211  MISS:     154701
L2C WRITEBACK ACCESS:     189591  HIT:     189229  MISS:        362
L2C PREFETCH  REQUESTED:    1896418  ISSUED:    1891758  USEFUL:      13185  USELESS:     140341
L2C AVERAGE MISS LATENCY: 106.57 cycles
LLC TOTAL     ACCESS:     868850  HIT:     667452  MISS:     201398
LLC LOAD      ACCESS:     113733  HIT:      70835  MISS:      42898
LLC RFO       ACCESS:      36995  HIT:       8807  MISS:      28188
LLC PREFETCH  ACCESS:     611614  HIT:     482026  MISS:     129588
LLC WRITEBACK ACCESS:     106508  HIT:     105784  MISS:        724
LLC PREFETCH  REQUESTED:          0  ISSUED:          0  USEFUL:      28458  USELESS:     103097
LLC AVERAGE MISS LATENCY: 190.211 cycles
Major fault: 0 Minor fault: 3439
CPU 0 L1D next line prefetcher final stats

DRAM Statistics
 CHANNEL 0
 RQ ROW_BUFFER_HIT:      47792  ROW_BUFFER_MISS:     152872
 DBUS_CONGESTED:     116607
 WQ ROW_BUFFER_HIT:      16250  ROW_BUFFER_MISS:      64566  FULL:          0

 AVG_CONGESTED_CYCLE: 5

CPU 0 Branch Prediction Accuracy: 97.9037% MPKI: 3.63418 Average ROB Occupancy at Mispredict: 87.1003

Branch types
NOT_BRANCH: 41331383 82.6628%
BRANCH_DIRECT_JUMP: 455615 0.91123%
BRANCH_INDIRECT: 20390 0.04078%
BRANCH_CONDITIONAL: 6745374 13.4907%
BRANCH_DIRECT_CALL: 494532 0.989064%
BRANCH_INDIRECT_CALL: 228815 0.45763%
BRANCH_RETURN: 723560 1.44712%
BRANCH_OTHER: 0 0%

