Initialize SIGNATURE TABLE
ST_SET: 1
ST_WAY: 256
ST_TAG_BIT: 16
ST_TAG_MASK: ffff

Initialize PATTERN TABLE
PT_SET: 512
PT_WAY: 4
SIG_DELTA_BIT: 7
C_SIG_BIT: 4
C_DELTA_BIT: 4

Initialize PREFETCH FILTER
FILTER_SET: 1024

*** ChampSim Multicore Out-of-Order Simulator ***

Warmup Instructions: 50000000
Simulation Instructions: 50000000
Number of CPUs: 1
LLC sets: 2048
LLC ways: 16
Off-chip DRAM Size: 4096 MB Channels: 1 Width: 64-bit Data Rate: 3200 MT/s

CPU 0 runs /Users/brandon/Documents/CoursesWi22/CSE240C/Homework1/ChampSim/ipc1_public/server_002.champsimtrace.xz
L1I D-JOLT instruction prefetcher has been constructed!
CPU 0 L1D next line prefetcher
Heartbeat CPU 0 instructions: 10000000 cycles: 3581211 heartbeat IPC: 2.79235 cumulative IPC: 2.79235 (Simulation time: 0 hr 1 min 38 sec) 
Heartbeat CPU 0 instructions: 20000002 cycles: 7170004 heartbeat IPC: 2.78645 cumulative IPC: 2.7894 (Simulation time: 0 hr 3 min 35 sec) 
Heartbeat CPU 0 instructions: 30000000 cycles: 10710738 heartbeat IPC: 2.82427 cumulative IPC: 2.80093 (Simulation time: 0 hr 5 min 34 sec) 
Heartbeat CPU 0 instructions: 40000000 cycles: 14260983 heartbeat IPC: 2.81671 cumulative IPC: 2.80486 (Simulation time: 0 hr 7 min 31 sec) 
Heartbeat CPU 0 instructions: 50000001 cycles: 17808754 heartbeat IPC: 2.81867 cumulative IPC: 2.80761 (Simulation time: 0 hr 9 min 28 sec) 

Warmup complete CPU 0 instructions: 50000001 cycles: 17808754 (Simulation time: 0 hr 9 min 28 sec) 

Heartbeat CPU 0 instructions: 60000000 cycles: 24248905 heartbeat IPC: 1.55276 cumulative IPC: 1.55276 (Simulation time: 0 hr 11 min 24 sec) 
Heartbeat CPU 0 instructions: 70000003 cycles: 30683958 heartbeat IPC: 1.55399 cumulative IPC: 1.55337 (Simulation time: 0 hr 13 min 21 sec) 
Heartbeat CPU 0 instructions: 80000003 cycles: 37120606 heartbeat IPC: 1.5536 cumulative IPC: 1.55345 (Simulation time: 0 hr 15 min 17 sec) 
Heartbeat CPU 0 instructions: 90000002 cycles: 43555384 heartbeat IPC: 1.55405 cumulative IPC: 1.5536 (Simulation time: 0 hr 16 min 49 sec) 
Heartbeat CPU 0 instructions: 100000003 cycles: 49989505 heartbeat IPC: 1.55421 cumulative IPC: 1.55372 (Simulation time: 0 hr 17 min 40 sec) 
Finished CPU 0 instructions: 50000002 cycles: 32180751 cumulative IPC: 1.55372 (Simulation time: 0 hr 17 min 40 sec) 

ChampSim completed all CPUs

Region of Interest Statistics

CPU 0 cumulative IPC: 1.55372 instructions: 50000002 cycles: 32180751
L1D TOTAL     ACCESS:   21524241  HIT:   21523432  MISS:        809
L1D LOAD      ACCESS:    6601757  HIT:    6601381  MISS:        376
L1D RFO       ACCESS:    8433013  HIT:    8432901  MISS:        112
L1D PREFETCH  ACCESS:    6489471  HIT:    6489150  MISS:        321
L1D WRITEBACK ACCESS:          0  HIT:          0  MISS:          0
L1D PREFETCH  REQUESTED:    6601810  ISSUED:    6496853  USEFUL:         91  USELESS:        231
L1D AVERAGE MISS LATENCY: 37.4808 cycles
L1I TOTAL     ACCESS:   19705788  HIT:   16201530  MISS:    3504258
L1I LOAD      ACCESS:    9890099  HIT:    9877263  MISS:      12836
L1I RFO       ACCESS:          0  HIT:          0  MISS:          0
L1I PREFETCH  ACCESS:    9815689  HIT:    6324267  MISS:    3491422
L1I WRITEBACK ACCESS:          0  HIT:          0  MISS:          0
L1I PREFETCH  REQUESTED:   10117927  ISSUED:   10101947  USEFUL:    2215310  USELESS:    1276101
L1I AVERAGE MISS LATENCY: 14.4311 cycles
L2C TOTAL     ACCESS:    5061459  HIT:    5061141  MISS:        318
L2C LOAD      ACCESS:      12473  HIT:      12402  MISS:         71
L2C RFO       ACCESS:        112  HIT:        108  MISS:          4
L2C PREFETCH  ACCESS:    5048538  HIT:    5048295  MISS:        243
L2C WRITEBACK ACCESS:        336  HIT:        336  MISS:          0
L2C PREFETCH  REQUESTED:    3832526  ISSUED:    3832281  USEFUL:        127  USELESS:        130
L2C AVERAGE MISS LATENCY: 120.673 cycles
LLC TOTAL     ACCESS:     819806  HIT:     819005  MISS:        801
LLC LOAD      ACCESS:         71  HIT:         58  MISS:         13
LLC RFO       ACCESS:          4  HIT:          2  MISS:          2
LLC PREFETCH  ACCESS:     819643  HIT:     818857  MISS:        786
LLC WRITEBACK ACCESS:         88  HIT:         88  MISS:          0
LLC PREFETCH  REQUESTED:          0  ISSUED:          0  USEFUL:         10  USELESS:        227
LLC AVERAGE MISS LATENCY: 354.949 cycles
Major fault: 0 Minor fault: 1873
CPU 0 L1D next line prefetcher final stats

DRAM Statistics
 CHANNEL 0
 RQ ROW_BUFFER_HIT:        162  ROW_BUFFER_MISS:        639
 DBUS_CONGESTED:        506
 WQ ROW_BUFFER_HIT:         83  ROW_BUFFER_MISS:        422  FULL:          0

 AVG_CONGESTED_CYCLE: 6

CPU 0 Branch Prediction Accuracy: 99.8789% MPKI: 0.20388 Average ROB Occupancy at Mispredict: 271.525

Branch types
NOT_BRANCH: 41580695 83.1614%
BRANCH_DIRECT_JUMP: 461630 0.92326%
BRANCH_INDIRECT: 0 0%
BRANCH_CONDITIONAL: 5376437 10.7529%
BRANCH_DIRECT_CALL: 1175775 2.35155%
BRANCH_INDIRECT_CALL: 114840 0.22968%
BRANCH_RETURN: 1290625 2.58125%
BRANCH_OTHER: 0 0%

