Initialize SIGNATURE TABLE
ST_SET: 1
ST_WAY: 256
ST_TAG_BIT: 16
ST_TAG_MASK: ffff

Initialize PATTERN TABLE
PT_SET: 512
PT_WAY: 4
SIG_DELTA_BIT: 7
C_SIG_BIT: 4
C_DELTA_BIT: 4

Initialize PREFETCH FILTER
FILTER_SET: 1024

*** ChampSim Multicore Out-of-Order Simulator ***

Warmup Instructions: 50000000
Simulation Instructions: 50000000
Number of CPUs: 1
LLC sets: 2048
LLC ways: 16
Off-chip DRAM Size: 4096 MB Channels: 1 Width: 64-bit Data Rate: 3200 MT/s

CPU 0 runs /Users/brandon/Documents/CoursesWi22/CSE240C/Homework1/ChampSim/ipc1_public/server_017.champsimtrace.xz
L1I D-JOLT instruction prefetcher has been constructed!
CPU 0 L1D next line prefetcher
Heartbeat CPU 0 instructions: 10000001 cycles: 3622816 heartbeat IPC: 2.76028 cumulative IPC: 2.76028 (Simulation time: 0 hr 1 min 43 sec) 
Heartbeat CPU 0 instructions: 20000000 cycles: 7243866 heartbeat IPC: 2.76163 cumulative IPC: 2.76096 (Simulation time: 0 hr 3 min 44 sec) 
Heartbeat CPU 0 instructions: 30000002 cycles: 10871407 heartbeat IPC: 2.75669 cumulative IPC: 2.75953 (Simulation time: 0 hr 5 min 46 sec) 
Heartbeat CPU 0 instructions: 40000000 cycles: 14494462 heartbeat IPC: 2.7601 cumulative IPC: 2.75967 (Simulation time: 0 hr 7 min 47 sec) 
Heartbeat CPU 0 instructions: 50000001 cycles: 18128455 heartbeat IPC: 2.75179 cumulative IPC: 2.7581 (Simulation time: 0 hr 9 min 47 sec) 

Warmup complete CPU 0 instructions: 50000001 cycles: 18128455 (Simulation time: 0 hr 9 min 47 sec) 

Heartbeat CPU 0 instructions: 60000002 cycles: 35816719 heartbeat IPC: 0.565347 cumulative IPC: 0.565347 (Simulation time: 0 hr 12 min 25 sec) 
Heartbeat CPU 0 instructions: 70000002 cycles: 53689540 heartbeat IPC: 0.559509 cumulative IPC: 0.562413 (Simulation time: 0 hr 15 min 3 sec) 
Heartbeat CPU 0 instructions: 80000000 cycles: 71400230 heartbeat IPC: 0.564631 cumulative IPC: 0.56315 (Simulation time: 0 hr 17 min 3 sec) 
Heartbeat CPU 0 instructions: 90000002 cycles: 94892998 heartbeat IPC: 0.425663 cumulative IPC: 0.521074 (Simulation time: 0 hr 18 min 2 sec) 
Heartbeat CPU 0 instructions: 100000003 cycles: 114905576 heartbeat IPC: 0.499686 cumulative IPC: 0.516651 (Simulation time: 0 hr 18 min 44 sec) 
Finished CPU 0 instructions: 50000002 cycles: 96777121 cumulative IPC: 0.516651 (Simulation time: 0 hr 18 min 44 sec) 

ChampSim completed all CPUs

Region of Interest Statistics

CPU 0 cumulative IPC: 0.516651 instructions: 50000002 cycles: 96777121
L1D TOTAL     ACCESS:   18377871  HIT:   16212194  MISS:    2165677
L1D LOAD      ACCESS:    7021970  HIT:    6274378  MISS:     747592
L1D RFO       ACCESS:    5525930  HIT:    4666686  MISS:     859244
L1D PREFETCH  ACCESS:    5829971  HIT:    5271130  MISS:     558841
L1D WRITEBACK ACCESS:          0  HIT:          0  MISS:          0
L1D PREFETCH  REQUESTED:    7059683  ISSUED:    6869241  USEFUL:     196387  USELESS:     362515
L1D AVERAGE MISS LATENCY: 176.42 cycles
L1I TOTAL     ACCESS:   17513213  HIT:   14487268  MISS:    3025945
L1I LOAD      ACCESS:    9895848  HIT:    9856077  MISS:      39771
L1I RFO       ACCESS:          0  HIT:          0  MISS:          0
L1I PREFETCH  ACCESS:    7617365  HIT:    4631191  MISS:    2986174
L1I WRITEBACK ACCESS:          0  HIT:          0  MISS:          0
L1I PREFETCH  REQUESTED:    8211071  ISSUED:    8158927  USEFUL:    2428902  USELESS:     557286
L1I AVERAGE MISS LATENCY: 18.5937 cycles
L2C TOTAL     ACCESS:    7628705  HIT:    5778849  MISS:    1849856
L2C LOAD      ACCESS:     573812  HIT:     244091  MISS:     329721
L2C RFO       ACCESS:     858751  HIT:      17497  MISS:     841254
L2C PREFETCH  ACCESS:    5073222  HIT:    4398011  MISS:     675211
L2C WRITEBACK ACCESS:    1122920  HIT:    1119250  MISS:       3670
L2C PREFETCH  REQUESTED:    4609506  ISSUED:    4605890  USEFUL:      21144  USELESS:     654778
L2C AVERAGE MISS LATENCY: 212.131 cycles
LLC TOTAL     ACCESS:    4244278  HIT:    2639285  MISS:    1604993
LLC LOAD      ACCESS:     329662  HIT:     171472  MISS:     158190
LLC RFO       ACCESS:     841249  HIT:     123108  MISS:     718141
LLC PREFETCH  ACCESS:    2010370  HIT:    1284789  MISS:     725581
LLC WRITEBACK ACCESS:    1062997  HIT:    1059916  MISS:       3081
LLC PREFETCH  REQUESTED:          0  ISSUED:          0  USEFUL:      51050  USELESS:     673166
LLC AVERAGE MISS LATENCY: 265.384 cycles
Major fault: 0 Minor fault: 24698
CPU 0 L1D next line prefetcher final stats

DRAM Statistics
 CHANNEL 0
 RQ ROW_BUFFER_HIT:     381594  ROW_BUFFER_MISS:    1220108
 DBUS_CONGESTED:    1526232
 WQ ROW_BUFFER_HIT:     250368  ROW_BUFFER_MISS:     630357  FULL:          0

 AVG_CONGESTED_CYCLE: 6

CPU 0 Branch Prediction Accuracy: 99.2833% MPKI: 1.20568 Average ROB Occupancy at Mispredict: 182.515

Branch types
NOT_BRANCH: 41588350 83.1767%
BRANCH_DIRECT_JUMP: 464501 0.929002%
BRANCH_INDIRECT: 45704 0.091408%
BRANCH_CONDITIONAL: 6147408 12.2948%
BRANCH_DIRECT_CALL: 675450 1.3509%
BRANCH_INDIRECT_CALL: 201532 0.403064%
BRANCH_RETURN: 876985 1.75397%
BRANCH_OTHER: 0 0%

