Initialize SIGNATURE TABLE
ST_SET: 1
ST_WAY: 256
ST_TAG_BIT: 16
ST_TAG_MASK: ffff

Initialize PATTERN TABLE
PT_SET: 512
PT_WAY: 4
SIG_DELTA_BIT: 7
C_SIG_BIT: 4
C_DELTA_BIT: 4

Initialize PREFETCH FILTER
FILTER_SET: 1024

*** ChampSim Multicore Out-of-Order Simulator ***

Warmup Instructions: 50000000
Simulation Instructions: 50000000
Number of CPUs: 1
LLC sets: 2048
LLC ways: 16
Off-chip DRAM Size: 4096 MB Channels: 1 Width: 64-bit Data Rate: 3200 MT/s

CPU 0 runs /Users/brandon/Documents/CoursesWi22/CSE240C/Homework1/ChampSim/ipc1_public/server_028.champsimtrace.xz
L1I D-JOLT instruction prefetcher has been constructed!
CPU 0 L1D next line prefetcher
Heartbeat CPU 0 instructions: 10000001 cycles: 3494701 heartbeat IPC: 2.86148 cumulative IPC: 2.86148 (Simulation time: 0 hr 1 min 54 sec) 
Heartbeat CPU 0 instructions: 20000002 cycles: 6992491 heartbeat IPC: 2.85895 cumulative IPC: 2.86021 (Simulation time: 0 hr 3 min 52 sec) 
Heartbeat CPU 0 instructions: 30000001 cycles: 10487944 heartbeat IPC: 2.86086 cumulative IPC: 2.86043 (Simulation time: 0 hr 5 min 48 sec) 
Heartbeat CPU 0 instructions: 40000002 cycles: 13988244 heartbeat IPC: 2.8569 cumulative IPC: 2.85954 (Simulation time: 0 hr 7 min 43 sec) 
Heartbeat CPU 0 instructions: 50000001 cycles: 17484590 heartbeat IPC: 2.86013 cumulative IPC: 2.85966 (Simulation time: 0 hr 9 min 40 sec) 

Warmup complete CPU 0 instructions: 50000001 cycles: 17484590 (Simulation time: 0 hr 9 min 40 sec) 

Heartbeat CPU 0 instructions: 60000000 cycles: 25010351 heartbeat IPC: 1.32877 cumulative IPC: 1.32877 (Simulation time: 0 hr 11 min 45 sec) 
Heartbeat CPU 0 instructions: 70000000 cycles: 32545239 heartbeat IPC: 1.32716 cumulative IPC: 1.32796 (Simulation time: 0 hr 13 min 52 sec) 
Heartbeat CPU 0 instructions: 80000000 cycles: 40066239 heartbeat IPC: 1.32961 cumulative IPC: 1.32851 (Simulation time: 0 hr 15 min 43 sec) 
*** Reached end of trace for Core: 0 Repeating trace: /Users/brandon/Documents/CoursesWi22/CSE240C/Homework1/ChampSim/ipc1_public/server_028.champsimtrace.xz
Heartbeat CPU 0 instructions: 90000000 cycles: 47554626 heartbeat IPC: 1.3354 cumulative IPC: 1.33023 (Simulation time: 0 hr 17 min 21 sec) 
Heartbeat CPU 0 instructions: 100000003 cycles: 55026247 heartbeat IPC: 1.3384 cumulative IPC: 1.33185 (Simulation time: 0 hr 18 min 43 sec) 
Finished CPU 0 instructions: 50000002 cycles: 37541657 cumulative IPC: 1.33185 (Simulation time: 0 hr 18 min 43 sec) 

ChampSim completed all CPUs

Region of Interest Statistics

CPU 0 cumulative IPC: 1.33185 instructions: 50000002 cycles: 37541657
L1D TOTAL     ACCESS:   19033164  HIT:   16959945  MISS:    2073219
L1D LOAD      ACCESS:    6721070  HIT:    5673813  MISS:    1047257
L1D RFO       ACCESS:    6099124  HIT:    5815220  MISS:     283904
L1D PREFETCH  ACCESS:    6212970  HIT:    5470912  MISS:     742058
L1D WRITEBACK ACCESS:          0  HIT:          0  MISS:          0
L1D PREFETCH  REQUESTED:    6783076  ISSUED:    6672973  USEFUL:     175887  USELESS:     566174
L1D AVERAGE MISS LATENCY: 22.2996 cycles
L1I TOTAL     ACCESS:   16943664  HIT:   13596310  MISS:    3347354
L1I LOAD      ACCESS:    9797170  HIT:    9746849  MISS:      50321
L1I RFO       ACCESS:          0  HIT:          0  MISS:          0
L1I PREFETCH  ACCESS:    7146494  HIT:    3849461  MISS:    3297033
L1I WRITEBACK ACCESS:          0  HIT:          0  MISS:          0
L1I PREFETCH  REQUESTED:    7624200  ISSUED:    7534468  USEFUL:    2879761  USELESS:     417270
L1I AVERAGE MISS LATENCY: 20.0612 cycles
L2C TOTAL     ACCESS:    7633229  HIT:    6659988  MISS:     973241
L2C LOAD      ACCESS:     939627  HIT:     754644  MISS:     184983
L2C RFO       ACCESS:     281669  HIT:     219022  MISS:      62647
L2C PREFETCH  ACCESS:    5807021  HIT:    5086584  MISS:     720437
L2C WRITEBACK ACCESS:     604912  HIT:     599738  MISS:       5174
L2C PREFETCH  REQUESTED:    5409072  ISSUED:    5399282  USEFUL:      12796  USELESS:     707589
L2C AVERAGE MISS LATENCY: 38.2536 cycles
LLC TOTAL     ACCESS:    2864507  HIT:    2791609  MISS:      72898
LLC LOAD      ACCESS:     184608  HIT:     168405  MISS:      16203
LLC RFO       ACCESS:      62626  HIT:      60653  MISS:       1973
LLC PREFETCH  ACCESS:    2491728  HIT:    2437356  MISS:      54372
LLC WRITEBACK ACCESS:     125545  HIT:     125195  MISS:        350
LLC PREFETCH  REQUESTED:          0  ISSUED:          0  USEFUL:       2264  USELESS:      50996
LLC AVERAGE MISS LATENCY: 157.92 cycles
Major fault: 0 Minor fault: 6044
CPU 0 L1D next line prefetcher final stats

DRAM Statistics
 CHANNEL 0
 RQ ROW_BUFFER_HIT:      20011  ROW_BUFFER_MISS:      52536
 DBUS_CONGESTED:      29027
 WQ ROW_BUFFER_HIT:        339  ROW_BUFFER_MISS:       3386  FULL:          0

 AVG_CONGESTED_CYCLE: 5

CPU 0 Branch Prediction Accuracy: 99.7093% MPKI: 0.54708 Average ROB Occupancy at Mispredict: 148.407

Branch types
NOT_BRANCH: 40590923 81.1818%
BRANCH_DIRECT_JUMP: 523494 1.04699%
BRANCH_INDIRECT: 166997 0.333994%
BRANCH_CONDITIONAL: 6365182 12.7304%
BRANCH_DIRECT_CALL: 989493 1.97899%
BRANCH_INDIRECT_CALL: 187203 0.374406%
BRANCH_RETURN: 1176698 2.3534%
BRANCH_OTHER: 0 0%

