Initialize SIGNATURE TABLE
ST_SET: 1
ST_WAY: 256
ST_TAG_BIT: 16
ST_TAG_MASK: ffff

Initialize PATTERN TABLE
PT_SET: 512
PT_WAY: 4
SIG_DELTA_BIT: 7
C_SIG_BIT: 4
C_DELTA_BIT: 4

Initialize PREFETCH FILTER
FILTER_SET: 1024

*** ChampSim Multicore Out-of-Order Simulator ***

Warmup Instructions: 50000000
Simulation Instructions: 50000000
Number of CPUs: 1
LLC sets: 2048
LLC ways: 16
Off-chip DRAM Size: 4096 MB Channels: 1 Width: 64-bit Data Rate: 3200 MT/s

CPU 0 runs /Users/brandon/Documents/CoursesWi22/CSE240C/Homework1/ChampSim/ipc1_public/server_014.champsimtrace.xz
L1I D-JOLT instruction prefetcher has been constructed!
CPU 0 L1D next line prefetcher
Heartbeat CPU 0 instructions: 10000003 cycles: 3519578 heartbeat IPC: 2.84125 cumulative IPC: 2.84125 (Simulation time: 0 hr 1 min 40 sec) 
Heartbeat CPU 0 instructions: 20000000 cycles: 7106397 heartbeat IPC: 2.78798 cumulative IPC: 2.81437 (Simulation time: 0 hr 3 min 39 sec) 
Heartbeat CPU 0 instructions: 30000001 cycles: 10647904 heartbeat IPC: 2.82366 cumulative IPC: 2.81746 (Simulation time: 0 hr 5 min 38 sec) 
Heartbeat CPU 0 instructions: 40000003 cycles: 14196126 heartbeat IPC: 2.81831 cumulative IPC: 2.81767 (Simulation time: 0 hr 7 min 38 sec) 
Heartbeat CPU 0 instructions: 50000000 cycles: 17744800 heartbeat IPC: 2.81795 cumulative IPC: 2.81773 (Simulation time: 0 hr 9 min 36 sec) 

Warmup complete CPU 0 instructions: 50000001 cycles: 17744801 (Simulation time: 0 hr 9 min 36 sec) 

Heartbeat CPU 0 instructions: 60000000 cycles: 24033272 heartbeat IPC: 1.59021 cumulative IPC: 1.59021 (Simulation time: 0 hr 11 min 36 sec) 
Heartbeat CPU 0 instructions: 70000003 cycles: 30326142 heartbeat IPC: 1.5891 cumulative IPC: 1.58966 (Simulation time: 0 hr 13 min 34 sec) 
*** Reached end of trace for Core: 0 Repeating trace: /Users/brandon/Documents/CoursesWi22/CSE240C/Homework1/ChampSim/ipc1_public/server_014.champsimtrace.xz
Heartbeat CPU 0 instructions: 80000001 cycles: 36906868 heartbeat IPC: 1.51959 cumulative IPC: 1.56559 (Simulation time: 0 hr 15 min 30 sec) 
Heartbeat CPU 0 instructions: 90000003 cycles: 44387340 heartbeat IPC: 1.33681 cumulative IPC: 1.50136 (Simulation time: 0 hr 16 min 57 sec) 
Heartbeat CPU 0 instructions: 100000001 cycles: 50888151 heartbeat IPC: 1.53827 cumulative IPC: 1.5086 (Simulation time: 0 hr 17 min 47 sec) 
Finished CPU 0 instructions: 50000000 cycles: 33143350 cumulative IPC: 1.5086 (Simulation time: 0 hr 17 min 47 sec) 

ChampSim completed all CPUs

Region of Interest Statistics

CPU 0 cumulative IPC: 1.5086 instructions: 50000000 cycles: 33143350
L1D TOTAL     ACCESS:   21636952  HIT:   21566091  MISS:      70861
L1D LOAD      ACCESS:    6678840  HIT:    6651911  MISS:      26929
L1D RFO       ACCESS:    8412794  HIT:    8380726  MISS:      32068
L1D PREFETCH  ACCESS:    6545318  HIT:    6533454  MISS:      11864
L1D WRITEBACK ACCESS:          0  HIT:          0  MISS:          0
L1D PREFETCH  REQUESTED:    6683266  ISSUED:    6573090  USEFUL:       3308  USELESS:       8556
L1D AVERAGE MISS LATENCY: 223.84 cycles
L1I TOTAL     ACCESS:   20337588  HIT:   16181252  MISS:    4156336
L1I LOAD      ACCESS:    9793027  HIT:    9762139  MISS:      30888
L1I RFO       ACCESS:          0  HIT:          0  MISS:          0
L1I PREFETCH  ACCESS:   10544561  HIT:    6419113  MISS:    4125448
L1I WRITEBACK ACCESS:          0  HIT:          0  MISS:          0
L1I PREFETCH  REQUESTED:   10912993  ISSUED:   10875413  USEFUL:    2734521  USELESS:    1390895
L1I AVERAGE MISS LATENCY: 14.8621 cycles
L2C TOTAL     ACCESS:    6034267  HIT:    5962629  MISS:      71638
L2C LOAD      ACCESS:      42975  HIT:      23827  MISS:      19148
L2C RFO       ACCESS:      32022  HIT:       1087  MISS:      30935
L2C PREFETCH  ACCESS:    5920901  HIT:    5899360  MISS:      21541
L2C WRITEBACK ACCESS:      38369  HIT:      38355  MISS:         14
L2C PREFETCH  REQUESTED:    4528204  ISSUED:    4522601  USEFUL:       1620  USELESS:      19828
L2C AVERAGE MISS LATENCY: 254.108 cycles
LLC TOTAL     ACCESS:    1105101  HIT:    1039173  MISS:      65928
LLC LOAD      ACCESS:      18043  HIT:       5194  MISS:      12849
LLC RFO       ACCESS:      30935  HIT:       5211  MISS:      25724
LLC PREFETCH  ACCESS:    1021326  HIT:     994078  MISS:      27248
LLC WRITEBACK ACCESS:      34797  HIT:      34690  MISS:        107
LLC PREFETCH  REQUESTED:          0  ISSUED:          0  USEFUL:       4450  USELESS:      23568
LLC AVERAGE MISS LATENCY: 313.711 cycles
Major fault: 0 Minor fault: 1918
CPU 0 L1D next line prefetcher final stats

DRAM Statistics
 CHANNEL 0
 RQ ROW_BUFFER_HIT:      29039  ROW_BUFFER_MISS:      36769
 DBUS_CONGESTED:      65262
 WQ ROW_BUFFER_HIT:       8292  ROW_BUFFER_MISS:      23810  FULL:          0

 AVG_CONGESTED_CYCLE: 6

CPU 0 Branch Prediction Accuracy: 99.7719% MPKI: 0.38824 Average ROB Occupancy at Mispredict: 154.878

Branch types
NOT_BRANCH: 41488994 82.978%
BRANCH_DIRECT_JUMP: 449417 0.898834%
BRANCH_INDIRECT: 2330 0.00466%
BRANCH_CONDITIONAL: 5470015 10.94%
BRANCH_DIRECT_CALL: 1172187 2.34437%
BRANCH_INDIRECT_CALL: 122383 0.244766%
BRANCH_RETURN: 1294554 2.58911%
BRANCH_OTHER: 0 0%

