Initialize SIGNATURE TABLE
ST_SET: 1
ST_WAY: 256
ST_TAG_BIT: 16
ST_TAG_MASK: ffff

Initialize PATTERN TABLE
PT_SET: 512
PT_WAY: 4
SIG_DELTA_BIT: 7
C_SIG_BIT: 4
C_DELTA_BIT: 4

Initialize PREFETCH FILTER
FILTER_SET: 1024

*** ChampSim Multicore Out-of-Order Simulator ***

Warmup Instructions: 50000000
Simulation Instructions: 50000000
Number of CPUs: 1
LLC sets: 2048
LLC ways: 16
Off-chip DRAM Size: 4096 MB Channels: 1 Width: 64-bit Data Rate: 3200 MT/s

CPU 0 runs /Users/brandon/Documents/CoursesWi22/CSE240C/Homework1/ChampSim/ipc1_public/spec_x264_001.champsimtrace.xz
L1I D-JOLT instruction prefetcher has been constructed!
CPU 0 L1D next line prefetcher
Heartbeat CPU 0 instructions: 10000002 cycles: 3059606 heartbeat IPC: 3.2684 cumulative IPC: 3.2684 (Simulation time: 0 hr 1 min 15 sec) 
Heartbeat CPU 0 instructions: 20000002 cycles: 6109279 heartbeat IPC: 3.27904 cumulative IPC: 3.27371 (Simulation time: 0 hr 2 min 29 sec) 
Heartbeat CPU 0 instructions: 30000002 cycles: 9144477 heartbeat IPC: 3.29468 cumulative IPC: 3.28067 (Simulation time: 0 hr 3 min 45 sec) 
Heartbeat CPU 0 instructions: 40000000 cycles: 12188590 heartbeat IPC: 3.28503 cumulative IPC: 3.28176 (Simulation time: 0 hr 4 min 56 sec) 
Heartbeat CPU 0 instructions: 50000000 cycles: 15231288 heartbeat IPC: 3.28656 cumulative IPC: 3.28272 (Simulation time: 0 hr 6 min 14 sec) 

Warmup complete CPU 0 instructions: 50000004 cycles: 15231289 (Simulation time: 0 hr 6 min 14 sec) 

Heartbeat CPU 0 instructions: 60000002 cycles: 21163314 heartbeat IPC: 1.68577 cumulative IPC: 1.68576 (Simulation time: 0 hr 6 min 55 sec) 
Heartbeat CPU 0 instructions: 70000000 cycles: 27075370 heartbeat IPC: 1.69146 cumulative IPC: 1.68861 (Simulation time: 0 hr 7 min 36 sec) 
Heartbeat CPU 0 instructions: 80000003 cycles: 33132601 heartbeat IPC: 1.65092 cumulative IPC: 1.67585 (Simulation time: 0 hr 8 min 18 sec) 
Heartbeat CPU 0 instructions: 90000001 cycles: 39171363 heartbeat IPC: 1.65597 cumulative IPC: 1.67084 (Simulation time: 0 hr 8 min 58 sec) 
Heartbeat CPU 0 instructions: 100000002 cycles: 45070320 heartbeat IPC: 1.69522 cumulative IPC: 1.67566 (Simulation time: 0 hr 9 min 44 sec) 
Finished CPU 0 instructions: 50000002 cycles: 29839032 cumulative IPC: 1.67566 (Simulation time: 0 hr 9 min 44 sec) 

ChampSim completed all CPUs

Region of Interest Statistics

CPU 0 cumulative IPC: 1.67566 instructions: 50000002 cycles: 29839032
L1D TOTAL     ACCESS:   12966290  HIT:   12805251  MISS:     161039
L1D LOAD      ACCESS:    5094065  HIT:    5038996  MISS:      55069
L1D RFO       ACCESS:    2882965  HIT:    2848652  MISS:      34313
L1D PREFETCH  ACCESS:    4989260  HIT:    4917603  MISS:      71657
L1D WRITEBACK ACCESS:          0  HIT:          0  MISS:          0
L1D PREFETCH  REQUESTED:    5110859  ISSUED:    5043886  USEFUL:      25793  USELESS:      45673
L1D AVERAGE MISS LATENCY: 40.2715 cycles
L1I TOTAL     ACCESS:    9453524  HIT:    9050522  MISS:     403002
L1I LOAD      ACCESS:    8036730  HIT:    8028440  MISS:       8290
L1I RFO       ACCESS:          0  HIT:          0  MISS:          0
L1I PREFETCH  ACCESS:    1416794  HIT:    1022082  MISS:     394712
L1I WRITEBACK ACCESS:          0  HIT:          0  MISS:          0
L1I PREFETCH  REQUESTED:    1553507  ISSUED:    1467227  USEFUL:     299452  USELESS:      95292
L1I AVERAGE MISS LATENCY: 14.8851 cycles
L2C TOTAL     ACCESS:     866946  HIT:     827437  MISS:      39509
L2C LOAD      ACCESS:      59755  HIT:      54239  MISS:       5516
L2C RFO       ACCESS:      34095  HIT:      21984  MISS:      12111
L2C PREFETCH  ACCESS:     729996  HIT:     708189  MISS:      21807
L2C WRITEBACK ACCESS:      43100  HIT:      43025  MISS:         75
L2C PREFETCH  REQUESTED:     610804  ISSUED:     607481  USEFUL:       9040  USELESS:      13034
L2C AVERAGE MISS LATENCY: 103.404 cycles
LLC TOTAL     ACCESS:     118990  HIT:      90004  MISS:      28986
LLC LOAD      ACCESS:       5515  HIT:       3371  MISS:       2144
LLC RFO       ACCESS:      12111  HIT:        496  MISS:      11615
LLC PREFETCH  ACCESS:      87804  HIT:      72661  MISS:      15143
LLC WRITEBACK ACCESS:      13560  HIT:      13476  MISS:         84
LLC PREFETCH  REQUESTED:          0  ISSUED:          0  USEFUL:       1771  USELESS:      14091
LLC AVERAGE MISS LATENCY: 162.346 cycles
Major fault: 0 Minor fault: 1285
CPU 0 L1D next line prefetcher final stats

DRAM Statistics
 CHANNEL 0
 RQ ROW_BUFFER_HIT:       9725  ROW_BUFFER_MISS:      19177
 DBUS_CONGESTED:      12402
 WQ ROW_BUFFER_HIT:       2908  ROW_BUFFER_MISS:       9647  FULL:          0

 AVG_CONGESTED_CYCLE: 6

CPU 0 Branch Prediction Accuracy: 97.1633% MPKI: 1.73704 Average ROB Occupancy at Mispredict: 43.0022

Branch types
NOT_BRANCH: 46937921 93.8758%
BRANCH_DIRECT_JUMP: 170816 0.341632%
BRANCH_INDIRECT: 0 0%
BRANCH_CONDITIONAL: 2532774 5.06555%
BRANCH_DIRECT_CALL: 114227 0.228454%
BRANCH_INDIRECT_CALL: 64863 0.129726%
BRANCH_RETURN: 179089 0.358178%
BRANCH_OTHER: 0 0%

