Initialize SIGNATURE TABLE
ST_SET: 1
ST_WAY: 256
ST_TAG_BIT: 16
ST_TAG_MASK: ffff

Initialize PATTERN TABLE
PT_SET: 512
PT_WAY: 4
SIG_DELTA_BIT: 7
C_SIG_BIT: 4
C_DELTA_BIT: 4

Initialize PREFETCH FILTER
FILTER_SET: 1024

*** ChampSim Multicore Out-of-Order Simulator ***

Warmup Instructions: 50000000
Simulation Instructions: 50000000
Number of CPUs: 1
LLC sets: 2048
LLC ways: 16
Off-chip DRAM Size: 4096 MB Channels: 1 Width: 64-bit Data Rate: 3200 MT/s

CPU 0 runs /Users/brandon/Documents/CoursesWi22/CSE240C/Homework1/ChampSim/ipc1_public/spec_gobmk_001.champsimtrace.xz
L1I D-JOLT instruction prefetcher has been constructed!
CPU 0 L1D next line prefetcher
Heartbeat CPU 0 instructions: 10000003 cycles: 3507052 heartbeat IPC: 2.8514 cumulative IPC: 2.8514 (Simulation time: 0 hr 1 min 35 sec) 
Heartbeat CPU 0 instructions: 20000002 cycles: 6987348 heartbeat IPC: 2.87332 cumulative IPC: 2.86232 (Simulation time: 0 hr 3 min 10 sec) 
Heartbeat CPU 0 instructions: 30000002 cycles: 10506130 heartbeat IPC: 2.84189 cumulative IPC: 2.85548 (Simulation time: 0 hr 4 min 44 sec) 
Heartbeat CPU 0 instructions: 40000001 cycles: 14025099 heartbeat IPC: 2.84174 cumulative IPC: 2.85203 (Simulation time: 0 hr 6 min 22 sec) 
Heartbeat CPU 0 instructions: 50000001 cycles: 17565279 heartbeat IPC: 2.82472 cumulative IPC: 2.84652 (Simulation time: 0 hr 7 min 55 sec) 

Warmup complete CPU 0 instructions: 50000001 cycles: 17565279 (Simulation time: 0 hr 7 min 55 sec) 

Heartbeat CPU 0 instructions: 60000000 cycles: 26334046 heartbeat IPC: 1.14041 cumulative IPC: 1.14041 (Simulation time: 0 hr 9 min 6 sec) 
Heartbeat CPU 0 instructions: 70000002 cycles: 34734640 heartbeat IPC: 1.19039 cumulative IPC: 1.16487 (Simulation time: 0 hr 10 min 18 sec) 
Heartbeat CPU 0 instructions: 80000003 cycles: 43570053 heartbeat IPC: 1.13181 cumulative IPC: 1.15363 (Simulation time: 0 hr 11 min 33 sec) 
Heartbeat CPU 0 instructions: 90000001 cycles: 52059034 heartbeat IPC: 1.178 cumulative IPC: 1.15963 (Simulation time: 0 hr 12 min 46 sec) 
Heartbeat CPU 0 instructions: 100000003 cycles: 60870771 heartbeat IPC: 1.13485 cumulative IPC: 1.15459 (Simulation time: 0 hr 14 min 1 sec) 
Finished CPU 0 instructions: 50000002 cycles: 43305492 cumulative IPC: 1.15459 (Simulation time: 0 hr 14 min 1 sec) 

ChampSim completed all CPUs

Region of Interest Statistics

CPU 0 cumulative IPC: 1.15459 instructions: 50000002 cycles: 43305492
L1D TOTAL     ACCESS:   17977812  HIT:   17598305  MISS:     379507
L1D LOAD      ACCESS:    7208367  HIT:    7072690  MISS:     135677
L1D RFO       ACCESS:    3700428  HIT:    3595887  MISS:     104541
L1D PREFETCH  ACCESS:    7069017  HIT:    6929728  MISS:     139289
L1D WRITEBACK ACCESS:          0  HIT:          0  MISS:          0
L1D PREFETCH  REQUESTED:    7213699  ISSUED:    7130969  USEFUL:      44598  USELESS:      94697
L1D AVERAGE MISS LATENCY: 32.8279 cycles
L1I TOTAL     ACCESS:   13874788  HIT:   12505228  MISS:    1369560
L1I LOAD      ACCESS:    8966293  HIT:    8901964  MISS:      64329
L1I RFO       ACCESS:          0  HIT:          0  MISS:          0
L1I PREFETCH  ACCESS:    4908495  HIT:    3603264  MISS:    1305231
L1I WRITEBACK ACCESS:          0  HIT:          0  MISS:          0
L1I PREFETCH  REQUESTED:    5078247  ISSUED:    4990511  USEFUL:     689381  USELESS:     615824
L1I AVERAGE MISS LATENCY: 15.0321 cycles
L2C TOTAL     ACCESS:    2538679  HIT:    2410059  MISS:     128620
L2C LOAD      ACCESS:     149323  HIT:     113332  MISS:      35991
L2C RFO       ACCESS:     104181  HIT:      70357  MISS:      33824
L2C PREFETCH  ACCESS:    2145888  HIT:    2087107  MISS:      58781
L2C WRITEBACK ACCESS:     139287  HIT:     139263  MISS:         24
L2C PREFETCH  REQUESTED:    1123337  ISSUED:    1123291  USEFUL:       5544  USELESS:      53568
L2C AVERAGE MISS LATENCY: 61.2184 cycles
LLC TOTAL     ACCESS:     269384  HIT:     237774  MISS:      31610
LLC LOAD      ACCESS:      35989  HIT:      27948  MISS:       8041
LLC RFO       ACCESS:      33824  HIT:      29068  MISS:       4756
LLC PREFETCH  ACCESS:     155082  HIT:     136483  MISS:      18599
LLC WRITEBACK ACCESS:      44489  HIT:      44275  MISS:        214
LLC PREFETCH  REQUESTED:          0  ISSUED:          0  USEFUL:       1450  USELESS:      15894
LLC AVERAGE MISS LATENCY: 180.439 cycles
Major fault: 0 Minor fault: 4161
CPU 0 L1D next line prefetcher final stats

DRAM Statistics
 CHANNEL 0
 RQ ROW_BUFFER_HIT:       3214  ROW_BUFFER_MISS:      28177
 DBUS_CONGESTED:      16747
 WQ ROW_BUFFER_HIT:       1077  ROW_BUFFER_MISS:      13089  FULL:          0

 AVG_CONGESTED_CYCLE: 4

CPU 0 Branch Prediction Accuracy: 94.7729% MPKI: 9.72684 Average ROB Occupancy at Mispredict: 54.0421

Branch types
NOT_BRANCH: 40695388 81.3908%
BRANCH_DIRECT_JUMP: 422107 0.844214%
BRANCH_INDIRECT: 65 0.00013%
BRANCH_CONDITIONAL: 8105007 16.21%
BRANCH_DIRECT_CALL: 374913 0.749826%
BRANCH_INDIRECT_CALL: 13657 0.027314%
BRANCH_RETURN: 388556 0.777112%
BRANCH_OTHER: 0 0%

