Initialize SIGNATURE TABLE
ST_SET: 1
ST_WAY: 256
ST_TAG_BIT: 16
ST_TAG_MASK: ffff

Initialize PATTERN TABLE
PT_SET: 512
PT_WAY: 4
SIG_DELTA_BIT: 7
C_SIG_BIT: 4
C_DELTA_BIT: 4

Initialize PREFETCH FILTER
FILTER_SET: 1024

*** ChampSim Multicore Out-of-Order Simulator ***

Warmup Instructions: 50000000
Simulation Instructions: 50000000
Number of CPUs: 1
LLC sets: 2048
LLC ways: 16
Off-chip DRAM Size: 4096 MB Channels: 1 Width: 64-bit Data Rate: 3200 MT/s

CPU 0 runs /Users/brandon/Documents/CoursesWi22/CSE240C/Homework1/ChampSim/ipc1_public/spec_gobmk_002.champsimtrace.xz
L1I D-JOLT instruction prefetcher has been constructed!
CPU 0 L1D next line prefetcher
Heartbeat CPU 0 instructions: 10000001 cycles: 3287468 heartbeat IPC: 3.04186 cumulative IPC: 3.04186 (Simulation time: 0 hr 1 min 33 sec) 
Heartbeat CPU 0 instructions: 20000000 cycles: 6618985 heartbeat IPC: 3.00164 cumulative IPC: 3.02161 (Simulation time: 0 hr 3 min 8 sec) 
Heartbeat CPU 0 instructions: 30000000 cycles: 9956905 heartbeat IPC: 2.99588 cumulative IPC: 3.01298 (Simulation time: 0 hr 4 min 44 sec) 
Heartbeat CPU 0 instructions: 40000000 cycles: 13266328 heartbeat IPC: 3.02167 cumulative IPC: 3.01515 (Simulation time: 0 hr 6 min 25 sec) 
Heartbeat CPU 0 instructions: 50000003 cycles: 16529852 heartbeat IPC: 3.06417 cumulative IPC: 3.02483 (Simulation time: 0 hr 8 min 1 sec) 

Warmup complete CPU 0 instructions: 50000003 cycles: 16529852 (Simulation time: 0 hr 8 min 1 sec) 

Heartbeat CPU 0 instructions: 60000003 cycles: 23931578 heartbeat IPC: 1.35104 cumulative IPC: 1.35104 (Simulation time: 0 hr 9 min 10 sec) 
Heartbeat CPU 0 instructions: 70000003 cycles: 31281688 heartbeat IPC: 1.36052 cumulative IPC: 1.35576 (Simulation time: 0 hr 10 min 21 sec) 
Heartbeat CPU 0 instructions: 80000002 cycles: 38481730 heartbeat IPC: 1.38888 cumulative IPC: 1.36663 (Simulation time: 0 hr 11 min 36 sec) 
Heartbeat CPU 0 instructions: 90000001 cycles: 46003682 heartbeat IPC: 1.32944 cumulative IPC: 1.35714 (Simulation time: 0 hr 12 min 43 sec) 
Heartbeat CPU 0 instructions: 100000003 cycles: 53775200 heartbeat IPC: 1.28675 cumulative IPC: 1.34245 (Simulation time: 0 hr 13 min 52 sec) 
Finished CPU 0 instructions: 50000000 cycles: 37245348 cumulative IPC: 1.34245 (Simulation time: 0 hr 13 min 52 sec) 

ChampSim completed all CPUs

Region of Interest Statistics

CPU 0 cumulative IPC: 1.34245 instructions: 50000000 cycles: 37245348
L1D TOTAL     ACCESS:   17613701  HIT:   17490585  MISS:     123116
L1D LOAD      ACCESS:    6652641  HIT:    6618385  MISS:      34256
L1D RFO       ACCESS:    4387676  HIT:    4344986  MISS:      42690
L1D PREFETCH  ACCESS:    6573384  HIT:    6527214  MISS:      46170
L1D WRITEBACK ACCESS:          0  HIT:          0  MISS:          0
L1D PREFETCH  REQUESTED:    6655017  ISSUED:    6587727  USEFUL:      17108  USELESS:      29245
L1D AVERAGE MISS LATENCY: 50.9268 cycles
L1I TOTAL     ACCESS:   15771276  HIT:   13777296  MISS:    1993980
L1I LOAD      ACCESS:    8875863  HIT:    8782668  MISS:      93195
L1I RFO       ACCESS:          0  HIT:          0  MISS:          0
L1I PREFETCH  ACCESS:    6895413  HIT:    4994628  MISS:    1900785
L1I WRITEBACK ACCESS:          0  HIT:          0  MISS:          0
L1I PREFETCH  REQUESTED:    7221561  ISSUED:    7025609  USEFUL:     989775  USELESS:     910970
L1I AVERAGE MISS LATENCY: 14.3524 cycles
L2C TOTAL     ACCESS:    3047321  HIT:    3009776  MISS:      37545
L2C LOAD      ACCESS:      92741  HIT:      78935  MISS:      13806
L2C RFO       ACCESS:      42554  HIT:      39613  MISS:       2941
L2C PREFETCH  ACCESS:    2837823  HIT:    2817171  MISS:      20652
L2C WRITEBACK ACCESS:      74203  HIT:      74057  MISS:        146
L2C PREFETCH  REQUESTED:    1335534  ISSUED:    1335532  USEFUL:       2434  USELESS:      18684
L2C AVERAGE MISS LATENCY: 126.321 cycles
LLC TOTAL     ACCESS:      89162  HIT:      58527  MISS:      30635
LLC LOAD      ACCESS:      13806  HIT:       5080  MISS:       8726
LLC RFO       ACCESS:       2941  HIT:       1313  MISS:       1628
LLC PREFETCH  ACCESS:      54186  HIT:      34349  MISS:      19837
LLC WRITEBACK ACCESS:      18229  HIT:      17785  MISS:        444
LLC PREFETCH  REQUESTED:          0  ISSUED:          0  USEFUL:       1968  USELESS:      17915
LLC AVERAGE MISS LATENCY: 182.529 cycles
Major fault: 0 Minor fault: 2780
CPU 0 L1D next line prefetcher final stats

DRAM Statistics
 CHANNEL 0
 RQ ROW_BUFFER_HIT:       2532  ROW_BUFFER_MISS:      27659
 DBUS_CONGESTED:      14121
 WQ ROW_BUFFER_HIT:        765  ROW_BUFFER_MISS:      12410  FULL:          0

 AVG_CONGESTED_CYCLE: 4

CPU 0 Branch Prediction Accuracy: 93.9974% MPKI: 10.2447 Average ROB Occupancy at Mispredict: 40.0191

Branch types
NOT_BRANCH: 41466063 82.9321%
BRANCH_DIRECT_JUMP: 464313 0.928626%
BRANCH_INDIRECT: 32 6.4e-05%
BRANCH_CONDITIONAL: 7069455 14.1389%
BRANCH_DIRECT_CALL: 499587 0.999174%
BRANCH_INDIRECT_CALL: 342 0.000684%
BRANCH_RETURN: 499906 0.999812%
BRANCH_OTHER: 0 0%

