Initialize SIGNATURE TABLE
ST_SET: 1
ST_WAY: 256
ST_TAG_BIT: 16
ST_TAG_MASK: ffff

Initialize PATTERN TABLE
PT_SET: 512
PT_WAY: 4
SIG_DELTA_BIT: 7
C_SIG_BIT: 4
C_DELTA_BIT: 4

Initialize PREFETCH FILTER
FILTER_SET: 1024

*** ChampSim Multicore Out-of-Order Simulator ***

Warmup Instructions: 50000000
Simulation Instructions: 50000000
Number of CPUs: 1
LLC sets: 2048
LLC ways: 16
Off-chip DRAM Size: 4096 MB Channels: 1 Width: 64-bit Data Rate: 3200 MT/s

CPU 0 runs /Users/brandon/Documents/CoursesWi22/CSE240C/Homework1/ChampSim/ipc1_public/spec_perlbench_001.champsimtrace.xz
L1I D-JOLT instruction prefetcher has been constructed!
CPU 0 L1D next line prefetcher
Heartbeat CPU 0 instructions: 10000000 cycles: 3275909 heartbeat IPC: 3.05259 cumulative IPC: 3.05259 (Simulation time: 0 hr 1 min 43 sec) 
Heartbeat CPU 0 instructions: 20000000 cycles: 6541440 heartbeat IPC: 3.06229 cumulative IPC: 3.05743 (Simulation time: 0 hr 3 min 31 sec) 
Heartbeat CPU 0 instructions: 30000002 cycles: 9859666 heartbeat IPC: 3.01366 cumulative IPC: 3.0427 (Simulation time: 0 hr 5 min 22 sec) 
Heartbeat CPU 0 instructions: 40000002 cycles: 13115577 heartbeat IPC: 3.07134 cumulative IPC: 3.04981 (Simulation time: 0 hr 7 min 8 sec) 
Heartbeat CPU 0 instructions: 50000001 cycles: 16389954 heartbeat IPC: 3.05402 cumulative IPC: 3.05065 (Simulation time: 0 hr 8 min 47 sec) 

Warmup complete CPU 0 instructions: 50000001 cycles: 16389954 (Simulation time: 0 hr 8 min 47 sec) 

Heartbeat CPU 0 instructions: 60000001 cycles: 24719740 heartbeat IPC: 1.20051 cumulative IPC: 1.20051 (Simulation time: 0 hr 10 min 25 sec) 
Heartbeat CPU 0 instructions: 70000003 cycles: 32897017 heartbeat IPC: 1.2229 cumulative IPC: 1.2116 (Simulation time: 0 hr 12 min 12 sec) 
Heartbeat CPU 0 instructions: 80000000 cycles: 41369411 heartbeat IPC: 1.1803 cumulative IPC: 1.20099 (Simulation time: 0 hr 13 min 55 sec) 
Heartbeat CPU 0 instructions: 90000000 cycles: 47124653 heartbeat IPC: 1.73755 cumulative IPC: 1.30146 (Simulation time: 0 hr 15 min 5 sec) 
Heartbeat CPU 0 instructions: 100000002 cycles: 53023112 heartbeat IPC: 1.69536 cumulative IPC: 1.36488 (Simulation time: 0 hr 16 min 9 sec) 
Finished CPU 0 instructions: 50000001 cycles: 36633158 cumulative IPC: 1.36488 (Simulation time: 0 hr 16 min 9 sec) 

ChampSim completed all CPUs

Region of Interest Statistics

CPU 0 cumulative IPC: 1.36488 instructions: 50000001 cycles: 36633158
L1D TOTAL     ACCESS:   20680467  HIT:   20265376  MISS:     415091
L1D LOAD      ACCESS:    7170080  HIT:    6956302  MISS:     213778
L1D RFO       ACCESS:    6542208  HIT:    6523682  MISS:      18526
L1D PREFETCH  ACCESS:    6968179  HIT:    6785392  MISS:     182787
L1D WRITEBACK ACCESS:          0  HIT:          0  MISS:          0
L1D PREFETCH  REQUESTED:    7185862  ISSUED:    7069656  USEFUL:      55109  USELESS:     127673
L1D AVERAGE MISS LATENCY: 59.3194 cycles
L1I TOTAL     ACCESS:   15315370  HIT:   14127825  MISS:    1187545
L1I LOAD      ACCESS:    9171028  HIT:    9100200  MISS:      70828
L1I RFO       ACCESS:          0  HIT:          0  MISS:          0
L1I PREFETCH  ACCESS:    6144342  HIT:    5027625  MISS:    1116717
L1I WRITEBACK ACCESS:          0  HIT:          0  MISS:          0
L1I PREFETCH  REQUESTED:    6707907  ISSUED:    6307576  USEFUL:     517276  USELESS:     599475
L1I AVERAGE MISS LATENCY: 16.0991 cycles
L2C TOTAL     ACCESS:    2270163  HIT:    2099410  MISS:     170753
L2C LOAD      ACCESS:     256772  HIT:     174492  MISS:      82280
L2C RFO       ACCESS:      18272  HIT:      12726  MISS:       5546
L2C PREFETCH  ACCESS:    1916167  HIT:    1833647  MISS:      82520
L2C WRITEBACK ACCESS:      78952  HIT:      78545  MISS:        407
L2C PREFETCH  REQUESTED:    1239711  ISSUED:    1239655  USEFUL:       7133  USELESS:      75420
L2C AVERAGE MISS LATENCY: 118.527 cycles
LLC TOTAL     ACCESS:     422476  HIT:     278175  MISS:     144301
LLC LOAD      ACCESS:      82276  HIT:      31863  MISS:      50413
LLC RFO       ACCESS:       5545  HIT:       2525  MISS:       3020
LLC PREFETCH  ACCESS:     308576  HIT:     218171  MISS:      90405
LLC WRITEBACK ACCESS:      26079  HIT:      25616  MISS:        463
LLC PREFETCH  REQUESTED:          0  ISSUED:          0  USEFUL:      13726  USELESS:      76521
LLC AVERAGE MISS LATENCY: 159.98 cycles
Major fault: 0 Minor fault: 6365
CPU 0 L1D next line prefetcher final stats

DRAM Statistics
 CHANNEL 0
 RQ ROW_BUFFER_HIT:      32846  ROW_BUFFER_MISS:     110992
 DBUS_CONGESTED:      56345
 WQ ROW_BUFFER_HIT:       4381  ROW_BUFFER_MISS:      13027  FULL:          0

 AVG_CONGESTED_CYCLE: 4

CPU 0 Branch Prediction Accuracy: 98.7418% MPKI: 2.47758 Average ROB Occupancy at Mispredict: 79.1486

Branch types
NOT_BRANCH: 40154100 80.3082%
BRANCH_DIRECT_JUMP: 817094 1.63419%
BRANCH_INDIRECT: 303787 0.607574%
BRANCH_CONDITIONAL: 7492103 14.9842%
BRANCH_DIRECT_CALL: 471777 0.943554%
BRANCH_INDIRECT_CALL: 144546 0.289092%
BRANCH_RETURN: 616324 1.23265%
BRANCH_OTHER: 0 0%

