Initialize SIGNATURE TABLE
ST_SET: 1
ST_WAY: 256
ST_TAG_BIT: 16
ST_TAG_MASK: ffff

Initialize PATTERN TABLE
PT_SET: 512
PT_WAY: 4
SIG_DELTA_BIT: 7
C_SIG_BIT: 4
C_DELTA_BIT: 4

Initialize PREFETCH FILTER
FILTER_SET: 1024

*** ChampSim Multicore Out-of-Order Simulator ***

Warmup Instructions: 50000000
Simulation Instructions: 50000000
Number of CPUs: 1
LLC sets: 2048
LLC ways: 16
Off-chip DRAM Size: 4096 MB Channels: 1 Width: 64-bit Data Rate: 3200 MT/s

CPU 0 runs /Users/brandon/Documents/CoursesWi22/CSE240C/Homework1/ChampSim/ipc1_public/client_008.champsimtrace.xz
CPU 0 L1I next line prefetcher
CPU 0 L1D next line prefetcher
Heartbeat CPU 0 instructions: 10000001 cycles: 3751735 heartbeat IPC: 2.66543 cumulative IPC: 2.66543 (Simulation time: 0 hr 1 min 46 sec) 
Heartbeat CPU 0 instructions: 20000001 cycles: 7524741 heartbeat IPC: 2.65041 cumulative IPC: 2.6579 (Simulation time: 0 hr 3 min 50 sec) 
Heartbeat CPU 0 instructions: 30000000 cycles: 11249199 heartbeat IPC: 2.68495 cumulative IPC: 2.66686 (Simulation time: 0 hr 5 min 52 sec) 
Heartbeat CPU 0 instructions: 40000002 cycles: 15040532 heartbeat IPC: 2.6376 cumulative IPC: 2.65948 (Simulation time: 0 hr 7 min 58 sec) 
Heartbeat CPU 0 instructions: 50000003 cycles: 18829788 heartbeat IPC: 2.63904 cumulative IPC: 2.65537 (Simulation time: 0 hr 10 min 5 sec) 

Warmup complete CPU 0 instructions: 50000003 cycles: 18829788 (Simulation time: 0 hr 10 min 5 sec) 

Heartbeat CPU 0 instructions: 60000000 cycles: 26947143 heartbeat IPC: 1.23193 cumulative IPC: 1.23193 (Simulation time: 0 hr 12 min 8 sec) 
Heartbeat CPU 0 instructions: 70000000 cycles: 34841318 heartbeat IPC: 1.26676 cumulative IPC: 1.2491 (Simulation time: 0 hr 14 min 20 sec) 
Heartbeat CPU 0 instructions: 80000001 cycles: 43887315 heartbeat IPC: 1.10546 cumulative IPC: 1.19725 (Simulation time: 0 hr 16 min 1 sec) 
Heartbeat CPU 0 instructions: 90000001 cycles: 51259037 heartbeat IPC: 1.35654 cumulative IPC: 1.23345 (Simulation time: 0 hr 17 min 19 sec) 
Heartbeat CPU 0 instructions: 100000001 cycles: 59289676 heartbeat IPC: 1.24523 cumulative IPC: 1.23579 (Simulation time: 0 hr 18 min 6 sec) 
Finished CPU 0 instructions: 50000002 cycles: 40459889 cumulative IPC: 1.23579 (Simulation time: 0 hr 18 min 6 sec) 

ChampSim completed all CPUs

Region of Interest Statistics

CPU 0 cumulative IPC: 1.23579 instructions: 50000002 cycles: 40459889
L1D TOTAL     ACCESS:   20483541  HIT:   18855007  MISS:    1628534
L1D LOAD      ACCESS:    8062585  HIT:    7263047  MISS:     799538
L1D RFO       ACCESS:    4815354  HIT:    4705788  MISS:     109566
L1D PREFETCH  ACCESS:    7605602  HIT:    6886172  MISS:     719430
L1D WRITEBACK ACCESS:          0  HIT:          0  MISS:          0
L1D PREFETCH  REQUESTED:    8131412  ISSUED:    7962489  USEFUL:     199656  USELESS:     519779
L1D AVERAGE MISS LATENCY: 32.793 cycles
L1I TOTAL     ACCESS:   11617009  HIT:   10464711  MISS:    1152298
L1I LOAD      ACCESS:    9769026  HIT:    9719362  MISS:      49664
L1I RFO       ACCESS:          0  HIT:          0  MISS:          0
L1I PREFETCH  ACCESS:    1847983  HIT:     745349  MISS:    1102634
L1I WRITEBACK ACCESS:          0  HIT:          0  MISS:          0
L1I PREFETCH  REQUESTED:    1880976  ISSUED:    1880964  USEFUL:     763900  USELESS:     338827
L1I AVERAGE MISS LATENCY: 17.7405 cycles
L2C TOTAL     ACCESS:    3876207  HIT:    3420356  MISS:     455851
L2C LOAD      ACCESS:     795847  HIT:     629602  MISS:     166245
L2C RFO       ACCESS:     104329  HIT:      18285  MISS:      86044
L2C PREFETCH  ACCESS:    2794026  HIT:    2590885  MISS:     203141
L2C WRITEBACK ACCESS:     182005  HIT:     181584  MISS:        421
L2C PREFETCH  REQUESTED:    3193515  ISSUED:    3187254  USEFUL:      18652  USELESS:     186895
L2C AVERAGE MISS LATENCY: 76.6815 cycles
LLC TOTAL     ACCESS:    1467581  HIT:    1284605  MISS:     182976
LLC LOAD      ACCESS:     166142  HIT:     144489  MISS:      21653
LLC RFO       ACCESS:      86039  HIT:      16682  MISS:      69357
LLC PREFETCH  ACCESS:    1079554  HIT:     987977  MISS:      91577
LLC WRITEBACK ACCESS:     135846  HIT:     135457  MISS:        389
LLC PREFETCH  REQUESTED:          0  ISSUED:          0  USEFUL:      24740  USELESS:      75282
LLC AVERAGE MISS LATENCY: 169.125 cycles
Major fault: 0 Minor fault: 5304
I-Shadow cache 408 bytes
Touched + WorthPF tables 98304 bytes 
MMA filter 174 bytes 
FNL filter 272 bytes 
TOTAL PREFETCHER STORAGE SIZE: 389974 bytes
CPU 0 L1I next line prefetcher final stats
CPU 0 L1D next line prefetcher final stats

DRAM Statistics
 CHANNEL 0
 RQ ROW_BUFFER_HIT:      52354  ROW_BUFFER_MISS:     130219
 DBUS_CONGESTED:     100014
 WQ ROW_BUFFER_HIT:      24070  ROW_BUFFER_MISS:      66178  FULL:          0

 AVG_CONGESTED_CYCLE: 6

CPU 0 Branch Prediction Accuracy: 98.6482% MPKI: 3.1551 Average ROB Occupancy at Mispredict: 96.9589

Branch types
NOT_BRANCH: 38329598 76.6592%
BRANCH_DIRECT_JUMP: 510116 1.02023%
BRANCH_INDIRECT: 225730 0.45146%
BRANCH_CONDITIONAL: 8366762 16.7335%
BRANCH_DIRECT_CALL: 600748 1.2015%
BRANCH_INDIRECT_CALL: 682990 1.36598%
BRANCH_RETURN: 1283974 2.56795%
BRANCH_OTHER: 0 0%

