Initialize SIGNATURE TABLE
ST_SET: 1
ST_WAY: 256
ST_TAG_BIT: 16
ST_TAG_MASK: ffff

Initialize PATTERN TABLE
PT_SET: 512
PT_WAY: 4
SIG_DELTA_BIT: 7
C_SIG_BIT: 4
C_DELTA_BIT: 4

Initialize PREFETCH FILTER
FILTER_SET: 1024

*** ChampSim Multicore Out-of-Order Simulator ***

Warmup Instructions: 50000000
Simulation Instructions: 50000000
Number of CPUs: 1
LLC sets: 2048
LLC ways: 16
Off-chip DRAM Size: 4096 MB Channels: 1 Width: 64-bit Data Rate: 3200 MT/s

CPU 0 runs /Users/brandon/Documents/CoursesWi22/CSE240C/Homework1/ChampSim/ipc1_public/client_005.champsimtrace.xz
CPU 0 L1I next line prefetcher
CPU 0 L1D next line prefetcher
Heartbeat CPU 0 instructions: 10000001 cycles: 3293246 heartbeat IPC: 3.03652 cumulative IPC: 3.03652 (Simulation time: 0 hr 1 min 34 sec) 
Heartbeat CPU 0 instructions: 20000002 cycles: 6700225 heartbeat IPC: 2.93515 cumulative IPC: 2.98497 (Simulation time: 0 hr 3 min 27 sec) 
Heartbeat CPU 0 instructions: 30000001 cycles: 10393544 heartbeat IPC: 2.70759 cumulative IPC: 2.88641 (Simulation time: 0 hr 5 min 28 sec) 
Heartbeat CPU 0 instructions: 40000000 cycles: 14071409 heartbeat IPC: 2.71897 cumulative IPC: 2.84264 (Simulation time: 0 hr 7 min 31 sec) 
Heartbeat CPU 0 instructions: 50000001 cycles: 17345297 heartbeat IPC: 3.05447 cumulative IPC: 2.88263 (Simulation time: 0 hr 9 min 20 sec) 

Warmup complete CPU 0 instructions: 50000001 cycles: 17345297 (Simulation time: 0 hr 9 min 20 sec) 

Heartbeat CPU 0 instructions: 60000002 cycles: 24907277 heartbeat IPC: 1.32241 cumulative IPC: 1.32241 (Simulation time: 0 hr 10 min 56 sec) 
Heartbeat CPU 0 instructions: 70000003 cycles: 32184337 heartbeat IPC: 1.37418 cumulative IPC: 1.3478 (Simulation time: 0 hr 12 min 36 sec) 
Heartbeat CPU 0 instructions: 80000001 cycles: 39057259 heartbeat IPC: 1.45498 cumulative IPC: 1.38173 (Simulation time: 0 hr 14 min 27 sec) 
Heartbeat CPU 0 instructions: 90000002 cycles: 48526184 heartbeat IPC: 1.05609 cumulative IPC: 1.28284 (Simulation time: 0 hr 16 min 17 sec) 
Heartbeat CPU 0 instructions: 100000002 cycles: 55998917 heartbeat IPC: 1.3382 cumulative IPC: 1.29354 (Simulation time: 0 hr 17 min 28 sec) 
Finished CPU 0 instructions: 50000001 cycles: 38653620 cumulative IPC: 1.29354 (Simulation time: 0 hr 17 min 28 sec) 

ChampSim completed all CPUs

Region of Interest Statistics

CPU 0 cumulative IPC: 1.29354 instructions: 50000001 cycles: 38653620
L1D TOTAL     ACCESS:   19658397  HIT:   19122551  MISS:     535846
L1D LOAD      ACCESS:    6656579  HIT:    6484926  MISS:     171653
L1D RFO       ACCESS:    6796837  HIT:    6612470  MISS:     184367
L1D PREFETCH  ACCESS:    6204981  HIT:    6025155  MISS:     179826
L1D WRITEBACK ACCESS:          0  HIT:          0  MISS:          0
L1D PREFETCH  REQUESTED:    6679955  ISSUED:    6309359  USEFUL:      59607  USELESS:     120107
L1D AVERAGE MISS LATENCY: 92.3632 cycles
L1I TOTAL     ACCESS:   12440129  HIT:   11188389  MISS:    1251740
L1I LOAD      ACCESS:    9315712  HIT:    9133765  MISS:     181947
L1I RFO       ACCESS:          0  HIT:          0  MISS:          0
L1I PREFETCH  ACCESS:    3124417  HIT:    2054624  MISS:    1069793
L1I WRITEBACK ACCESS:          0  HIT:          0  MISS:          0
L1I PREFETCH  REQUESTED:    3243978  ISSUED:    3243878  USEFUL:     653252  USELESS:     416458
L1I AVERAGE MISS LATENCY: 20.0027 cycles
L2C TOTAL     ACCESS:    2591542  HIT:    2202263  MISS:     389279
L2C LOAD      ACCESS:     315995  HIT:     230933  MISS:      85062
L2C RFO       ACCESS:     180782  HIT:      31170  MISS:     149612
L2C PREFETCH  ACCESS:    1841720  HIT:    1688185  MISS:     153535
L2C WRITEBACK ACCESS:     253045  HIT:     251975  MISS:       1070
L2C PREFETCH  REQUESTED:    2019129  ISSUED:    2018108  USEFUL:      16093  USELESS:     135504
L2C AVERAGE MISS LATENCY: 127.721 cycles
LLC TOTAL     ACCESS:    1010563  HIT:     708741  MISS:     301822
LLC LOAD      ACCESS:      85033  HIT:      43807  MISS:      41226
LLC RFO       ACCESS:     149608  HIT:      20198  MISS:     129410
LLC PREFETCH  ACCESS:     576031  HIT:     445695  MISS:     130336
LLC WRITEBACK ACCESS:     199891  HIT:     199041  MISS:        850
LLC PREFETCH  REQUESTED:          0  ISSUED:          0  USEFUL:      28287  USELESS:      97351
LLC AVERAGE MISS LATENCY: 170.471 cycles
Major fault: 0 Minor fault: 6084
I-Shadow cache 408 bytes
Touched + WorthPF tables 98304 bytes 
MMA filter 174 bytes 
FNL filter 272 bytes 
TOTAL PREFETCHER STORAGE SIZE: 389974 bytes
CPU 0 L1I next line prefetcher final stats
CPU 0 L1D next line prefetcher final stats

DRAM Statistics
 CHANNEL 0
 RQ ROW_BUFFER_HIT:      97522  ROW_BUFFER_MISS:     203444
 DBUS_CONGESTED:     245510
 WQ ROW_BUFFER_HIT:      50972  ROW_BUFFER_MISS:     132153  FULL:          0

 AVG_CONGESTED_CYCLE: 6

CPU 0 Branch Prediction Accuracy: 97.8666% MPKI: 3.9013 Average ROB Occupancy at Mispredict: 87.7686

Branch types
NOT_BRANCH: 40856327 81.7127%
BRANCH_DIRECT_JUMP: 484667 0.969334%
BRANCH_INDIRECT: 85086 0.170172%
BRANCH_CONDITIONAL: 6230887 12.4618%
BRANCH_DIRECT_CALL: 1028917 2.05783%
BRANCH_INDIRECT_CALL: 141825 0.28365%
BRANCH_RETURN: 1171985 2.34397%
BRANCH_OTHER: 0 0%

