Initialize SIGNATURE TABLE
ST_SET: 1
ST_WAY: 256
ST_TAG_BIT: 16
ST_TAG_MASK: ffff

Initialize PATTERN TABLE
PT_SET: 512
PT_WAY: 4
SIG_DELTA_BIT: 7
C_SIG_BIT: 4
C_DELTA_BIT: 4

Initialize PREFETCH FILTER
FILTER_SET: 1024

*** ChampSim Multicore Out-of-Order Simulator ***

Warmup Instructions: 50000000
Simulation Instructions: 50000000
Number of CPUs: 1
LLC sets: 2048
LLC ways: 16
Off-chip DRAM Size: 4096 MB Channels: 1 Width: 64-bit Data Rate: 3200 MT/s

CPU 0 runs /Users/brandon/Documents/CoursesWi22/CSE240C/Homework1/ChampSim/ipc1_public/client_001.champsimtrace.xz
CPU 0 L1I next line prefetcher
CPU 0 L1D next line prefetcher
Heartbeat CPU 0 instructions: 10000003 cycles: 3410154 heartbeat IPC: 2.93242 cumulative IPC: 2.93242 (Simulation time: 0 hr 1 min 31 sec) 
Heartbeat CPU 0 instructions: 20000001 cycles: 7118337 heartbeat IPC: 2.69674 cumulative IPC: 2.80965 (Simulation time: 0 hr 3 min 21 sec) 
Heartbeat CPU 0 instructions: 30000001 cycles: 10481112 heartbeat IPC: 2.97373 cumulative IPC: 2.86229 (Simulation time: 0 hr 5 min 5 sec) 
Heartbeat CPU 0 instructions: 40000003 cycles: 14350946 heartbeat IPC: 2.58409 cumulative IPC: 2.78727 (Simulation time: 0 hr 7 min 1 sec) 
Heartbeat CPU 0 instructions: 50000003 cycles: 17647926 heartbeat IPC: 3.03308 cumulative IPC: 2.83319 (Simulation time: 0 hr 8 min 46 sec) 

Warmup complete CPU 0 instructions: 50000003 cycles: 17647926 (Simulation time: 0 hr 8 min 46 sec) 

Heartbeat CPU 0 instructions: 60000000 cycles: 26637446 heartbeat IPC: 1.11241 cumulative IPC: 1.11241 (Simulation time: 0 hr 10 min 30 sec) 
Heartbeat CPU 0 instructions: 70000000 cycles: 32978648 heartbeat IPC: 1.57699 cumulative IPC: 1.30457 (Simulation time: 0 hr 11 min 56 sec) 
Heartbeat CPU 0 instructions: 80000002 cycles: 42311933 heartbeat IPC: 1.07143 cumulative IPC: 1.21635 (Simulation time: 0 hr 13 min 50 sec) 
Heartbeat CPU 0 instructions: 90000000 cycles: 48503185 heartbeat IPC: 1.61518 cumulative IPC: 1.29638 (Simulation time: 0 hr 15 min 12 sec) 
Heartbeat CPU 0 instructions: 100000002 cycles: 57343909 heartbeat IPC: 1.13113 cumulative IPC: 1.25957 (Simulation time: 0 hr 16 min 40 sec) 
Finished CPU 0 instructions: 50000003 cycles: 39695984 cumulative IPC: 1.25957 (Simulation time: 0 hr 16 min 40 sec) 

ChampSim completed all CPUs

Region of Interest Statistics

CPU 0 cumulative IPC: 1.25957 instructions: 50000003 cycles: 39695984
L1D TOTAL     ACCESS:   21218304  HIT:   20381922  MISS:     836382
L1D LOAD      ACCESS:    8811227  HIT:    8416133  MISS:     395094
L1D RFO       ACCESS:    4039991  HIT:    3980933  MISS:      59058
L1D PREFETCH  ACCESS:    8367086  HIT:    7984856  MISS:     382230
L1D WRITEBACK ACCESS:          0  HIT:          0  MISS:          0
L1D PREFETCH  REQUESTED:    8856616  ISSUED:    8546745  USEFUL:     129236  USELESS:     252968
L1D AVERAGE MISS LATENCY: 47.6898 cycles
L1I TOTAL     ACCESS:   10270716  HIT:    9807147  MISS:     463569
L1I LOAD      ACCESS:    8927506  HIT:    8916104  MISS:      11402
L1I RFO       ACCESS:          0  HIT:          0  MISS:          0
L1I PREFETCH  ACCESS:    1343210  HIT:     891043  MISS:     452167
L1I WRITEBACK ACCESS:          0  HIT:          0  MISS:          0
L1I PREFETCH  REQUESTED:    1373301  ISSUED:    1373257  USEFUL:     320861  USELESS:     131227
L1I AVERAGE MISS LATENCY: 20.3476 cycles
L2C TOTAL     ACCESS:    1973413  HIT:    1669218  MISS:     304195
L2C LOAD      ACCESS:     382286  HIT:     269134  MISS:     113152
L2C RFO       ACCESS:      58280  HIT:      21075  MISS:      37205
L2C PREFETCH  ACCESS:    1343267  HIT:    1189646  MISS:     153621
L2C WRITEBACK ACCESS:     189580  HIT:     189363  MISS:        217
L2C PREFETCH  REQUESTED:    1699831  ISSUED:    1696513  USEFUL:      13483  USELESS:     139038
L2C AVERAGE MISS LATENCY: 105.844 cycles
LLC TOTAL     ACCESS:     814432  HIT:     617495  MISS:     196937
LLC LOAD      ACCESS:     112812  HIT:      70488  MISS:      42324
LLC RFO       ACCESS:      37204  HIT:       9207  MISS:      27997
LLC PREFETCH  ACCESS:     557764  HIT:     431776  MISS:     125988
LLC WRITEBACK ACCESS:     106652  HIT:     106024  MISS:        628
LLC PREFETCH  REQUESTED:          0  ISSUED:          0  USEFUL:      27953  USELESS:     100035
LLC AVERAGE MISS LATENCY: 188.088 cycles
Major fault: 0 Minor fault: 3433
I-Shadow cache 408 bytes
Touched + WorthPF tables 98304 bytes 
MMA filter 174 bytes 
FNL filter 272 bytes 
TOTAL PREFETCHER STORAGE SIZE: 389974 bytes
CPU 0 L1I next line prefetcher final stats
CPU 0 L1D next line prefetcher final stats

DRAM Statistics
 CHANNEL 0
 RQ ROW_BUFFER_HIT:      48375  ROW_BUFFER_MISS:     147930
 DBUS_CONGESTED:     117587
 WQ ROW_BUFFER_HIT:      16150  ROW_BUFFER_MISS:      64604  FULL:          0

 AVG_CONGESTED_CYCLE: 5

CPU 0 Branch Prediction Accuracy: 97.9037% MPKI: 3.63418 Average ROB Occupancy at Mispredict: 87.0847

Branch types
NOT_BRANCH: 41331383 82.6628%
BRANCH_DIRECT_JUMP: 455615 0.91123%
BRANCH_INDIRECT: 20390 0.04078%
BRANCH_CONDITIONAL: 6745374 13.4907%
BRANCH_DIRECT_CALL: 494532 0.989064%
BRANCH_INDIRECT_CALL: 228815 0.45763%
BRANCH_RETURN: 723560 1.44712%
BRANCH_OTHER: 0 0%

