Initialize SIGNATURE TABLE
ST_SET: 1
ST_WAY: 256
ST_TAG_BIT: 16
ST_TAG_MASK: ffff

Initialize PATTERN TABLE
PT_SET: 512
PT_WAY: 4
SIG_DELTA_BIT: 7
C_SIG_BIT: 4
C_DELTA_BIT: 4

Initialize PREFETCH FILTER
FILTER_SET: 1024

*** ChampSim Multicore Out-of-Order Simulator ***

Warmup Instructions: 50000000
Simulation Instructions: 50000000
Number of CPUs: 1
LLC sets: 2048
LLC ways: 16
Off-chip DRAM Size: 4096 MB Channels: 1 Width: 64-bit Data Rate: 3200 MT/s

CPU 0 runs /Users/brandon/Documents/CoursesWi22/CSE240C/Homework1/ChampSim/ipc1_public/client_006.champsimtrace.xz
CPU 0 L1I next line prefetcher
CPU 0 L1D next line prefetcher
Heartbeat CPU 0 instructions: 10000003 cycles: 4267427 heartbeat IPC: 2.34333 cumulative IPC: 2.34333 (Simulation time: 0 hr 1 min 46 sec) 
Heartbeat CPU 0 instructions: 20000000 cycles: 8307251 heartbeat IPC: 2.47535 cumulative IPC: 2.40754 (Simulation time: 0 hr 3 min 44 sec) 
Heartbeat CPU 0 instructions: 30000003 cycles: 11370509 heartbeat IPC: 3.2645 cumulative IPC: 2.6384 (Simulation time: 0 hr 5 min 20 sec) 
Heartbeat CPU 0 instructions: 40000000 cycles: 14715245 heartbeat IPC: 2.98977 cumulative IPC: 2.71827 (Simulation time: 0 hr 7 min 6 sec) 
Heartbeat CPU 0 instructions: 50000003 cycles: 18819985 heartbeat IPC: 2.43621 cumulative IPC: 2.65675 (Simulation time: 0 hr 9 min 4 sec) 

Warmup complete CPU 0 instructions: 50000003 cycles: 18819985 (Simulation time: 0 hr 9 min 4 sec) 

Heartbeat CPU 0 instructions: 60000001 cycles: 26656358 heartbeat IPC: 1.2761 cumulative IPC: 1.2761 (Simulation time: 0 hr 10 min 35 sec) 
Heartbeat CPU 0 instructions: 70000003 cycles: 36361685 heartbeat IPC: 1.03036 cumulative IPC: 1.14014 (Simulation time: 0 hr 12 min 13 sec) 
Heartbeat CPU 0 instructions: 80000002 cycles: 44679720 heartbeat IPC: 1.20221 cumulative IPC: 1.1601 (Simulation time: 0 hr 13 min 44 sec) 
Heartbeat CPU 0 instructions: 90000003 cycles: 52501884 heartbeat IPC: 1.27842 cumulative IPC: 1.18758 (Simulation time: 0 hr 15 min 5 sec) 
Heartbeat CPU 0 instructions: 100000001 cycles: 60670506 heartbeat IPC: 1.2242 cumulative IPC: 1.19473 (Simulation time: 0 hr 16 min 32 sec) 
Finished CPU 0 instructions: 50000002 cycles: 41850522 cumulative IPC: 1.19473 (Simulation time: 0 hr 16 min 32 sec) 

ChampSim completed all CPUs

Region of Interest Statistics

CPU 0 cumulative IPC: 1.19473 instructions: 50000002 cycles: 41850522
L1D TOTAL     ACCESS:   16582829  HIT:   15855654  MISS:     727175
L1D LOAD      ACCESS:    6361230  HIT:    5954255  MISS:     406975
L1D RFO       ACCESS:    4332362  HIT:    4289741  MISS:      42621
L1D PREFETCH  ACCESS:    5889237  HIT:    5611658  MISS:     277579
L1D WRITEBACK ACCESS:          0  HIT:          0  MISS:          0
L1D PREFETCH  REQUESTED:    6403186  ISSUED:    6222163  USEFUL:     116595  USELESS:     160858
L1D AVERAGE MISS LATENCY: 82.0469 cycles
L1I TOTAL     ACCESS:   10600736  HIT:    9533664  MISS:    1067072
L1I LOAD      ACCESS:    8465486  HIT:    8451106  MISS:      14380
L1I RFO       ACCESS:          0  HIT:          0  MISS:          0
L1I PREFETCH  ACCESS:    2135250  HIT:    1082558  MISS:    1052692
L1I WRITEBACK ACCESS:          0  HIT:          0  MISS:          0
L1I PREFETCH  REQUESTED:    2169047  ISSUED:    2168973  USEFUL:     786700  USELESS:     265927
L1I AVERAGE MISS LATENCY: 21.9796 cycles
L2C TOTAL     ACCESS:    2450659  HIT:    1899407  MISS:     551252
L2C LOAD      ACCESS:     346816  HIT:     109784  MISS:     237032
L2C RFO       ACCESS:      42350  HIT:      12418  MISS:      29932
L2C PREFETCH  ACCESS:    1885527  HIT:    1602009  MISS:     283518
L2C WRITEBACK ACCESS:     175966  HIT:     175196  MISS:        770
L2C PREFETCH  REQUESTED:    3039466  ISSUED:    3017007  USEFUL:      10768  USELESS:     273716
L2C AVERAGE MISS LATENCY: 116.963 cycles
LLC TOTAL     ACCESS:    1361293  HIT:     974985  MISS:     386308
LLC LOAD      ACCESS:     227748  HIT:     134706  MISS:      93042
LLC RFO       ACCESS:      29928  HIT:       5164  MISS:      24764
LLC PREFETCH  ACCESS:     969115  HIT:     701133  MISS:     267982
LLC WRITEBACK ACCESS:     134502  HIT:     133982  MISS:        520
LLC PREFETCH  REQUESTED:          0  ISSUED:          0  USEFUL:      40873  USELESS:     230686
LLC AVERAGE MISS LATENCY: 199.821 cycles
Major fault: 0 Minor fault: 10527
I-Shadow cache 408 bytes
Touched + WorthPF tables 98304 bytes 
MMA filter 174 bytes 
FNL filter 272 bytes 
TOTAL PREFETCHER STORAGE SIZE: 389974 bytes
CPU 0 L1I next line prefetcher final stats
CPU 0 L1D next line prefetcher final stats

DRAM Statistics
 CHANNEL 0
 RQ ROW_BUFFER_HIT:     101857  ROW_BUFFER_MISS:     283918
 DBUS_CONGESTED:     227163
 WQ ROW_BUFFER_HIT:      21567  ROW_BUFFER_MISS:      92988  FULL:          0

 AVG_CONGESTED_CYCLE: 5

CPU 0 Branch Prediction Accuracy: 98.1683% MPKI: 3.13642 Average ROB Occupancy at Mispredict: 88.0952

Branch types
NOT_BRANCH: 41438063 82.8761%
BRANCH_DIRECT_JUMP: 413829 0.827658%
BRANCH_INDIRECT: 47058 0.094116%
BRANCH_CONDITIONAL: 6843835 13.6877%
BRANCH_DIRECT_CALL: 536885 1.07377%
BRANCH_INDIRECT_CALL: 90642 0.181284%
BRANCH_RETURN: 629329 1.25866%
BRANCH_OTHER: 0 0%

