Initialize SIGNATURE TABLE
ST_SET: 1
ST_WAY: 256
ST_TAG_BIT: 16
ST_TAG_MASK: ffff

Initialize PATTERN TABLE
PT_SET: 512
PT_WAY: 4
SIG_DELTA_BIT: 7
C_SIG_BIT: 4
C_DELTA_BIT: 4

Initialize PREFETCH FILTER
FILTER_SET: 1024

*** ChampSim Multicore Out-of-Order Simulator ***

Warmup Instructions: 50000000
Simulation Instructions: 50000000
Number of CPUs: 1
LLC sets: 2048
LLC ways: 16
Off-chip DRAM Size: 4096 MB Channels: 1 Width: 64-bit Data Rate: 3200 MT/s

CPU 0 runs /Users/brandon/Documents/CoursesWi22/CSE240C/Homework1/ChampSim/ipc1_public/client_003.champsimtrace.xz
CPU 0 L1I next line prefetcher
CPU 0 L1D next line prefetcher
Heartbeat CPU 0 instructions: 10000000 cycles: 3478111 heartbeat IPC: 2.87512 cumulative IPC: 2.87512 (Simulation time: 0 hr 1 min 37 sec) 
Heartbeat CPU 0 instructions: 20000002 cycles: 6932201 heartbeat IPC: 2.89512 cumulative IPC: 2.88509 (Simulation time: 0 hr 3 min 32 sec) 
Heartbeat CPU 0 instructions: 30000003 cycles: 10493077 heartbeat IPC: 2.8083 cumulative IPC: 2.85903 (Simulation time: 0 hr 5 min 28 sec) 
Heartbeat CPU 0 instructions: 40000001 cycles: 14109437 heartbeat IPC: 2.76521 cumulative IPC: 2.83498 (Simulation time: 0 hr 7 min 27 sec) 
Heartbeat CPU 0 instructions: 50000003 cycles: 17654532 heartbeat IPC: 2.8208 cumulative IPC: 2.83213 (Simulation time: 0 hr 9 min 23 sec) 

Warmup complete CPU 0 instructions: 50000003 cycles: 17654532 (Simulation time: 0 hr 9 min 23 sec) 

Heartbeat CPU 0 instructions: 60000002 cycles: 23908245 heartbeat IPC: 1.59905 cumulative IPC: 1.59905 (Simulation time: 0 hr 11 min 3 sec) 
Heartbeat CPU 0 instructions: 70000001 cycles: 29969001 heartbeat IPC: 1.64996 cumulative IPC: 1.62411 (Simulation time: 0 hr 12 min 45 sec) 
Heartbeat CPU 0 instructions: 80000001 cycles: 36788877 heartbeat IPC: 1.4663 cumulative IPC: 1.56786 (Simulation time: 0 hr 14 min 24 sec) 
Heartbeat CPU 0 instructions: 90000000 cycles: 45787546 heartbeat IPC: 1.11128 cumulative IPC: 1.42182 (Simulation time: 0 hr 15 min 38 sec) 
Heartbeat CPU 0 instructions: 100000003 cycles: 56598277 heartbeat IPC: 0.925007 cumulative IPC: 1.2839 (Simulation time: 0 hr 17 min 3 sec) 
Finished CPU 0 instructions: 50000000 cycles: 38943745 cumulative IPC: 1.2839 (Simulation time: 0 hr 17 min 3 sec) 

ChampSim completed all CPUs

Region of Interest Statistics

CPU 0 cumulative IPC: 1.2839 instructions: 50000000 cycles: 38943745
L1D TOTAL     ACCESS:   17646903  HIT:   17150920  MISS:     495983
L1D LOAD      ACCESS:    6044007  HIT:    5917222  MISS:     126785
L1D RFO       ACCESS:    5948400  HIT:    5714037  MISS:     234363
L1D PREFETCH  ACCESS:    5654496  HIT:    5519661  MISS:     134835
L1D WRITEBACK ACCESS:          0  HIT:          0  MISS:          0
L1D PREFETCH  REQUESTED:    6085461  ISSUED:    5944466  USEFUL:      66905  USELESS:      67978
L1D AVERAGE MISS LATENCY: 121.074 cycles
L1I TOTAL     ACCESS:   11667201  HIT:   10798409  MISS:     868792
L1I LOAD      ACCESS:    9449857  HIT:    9341165  MISS:     108692
L1I RFO       ACCESS:          0  HIT:          0  MISS:          0
L1I PREFETCH  ACCESS:    2217344  HIT:    1457244  MISS:     760100
L1I WRITEBACK ACCESS:          0  HIT:          0  MISS:          0
L1I PREFETCH  REQUESTED:    2294868  ISSUED:    2294814  USEFUL:     461303  USELESS:     298833
L1I AVERAGE MISS LATENCY: 20.0717 cycles
L2C TOTAL     ACCESS:    1994448  HIT:    1596563  MISS:     397885
L2C LOAD      ACCESS:     184909  HIT:     141896  MISS:      43013
L2C RFO       ACCESS:     232282  HIT:      25710  MISS:     206572
L2C PREFETCH  ACCESS:    1307950  HIT:    1160862  MISS:     147088
L2C WRITEBACK ACCESS:     269307  HIT:     268095  MISS:       1212
L2C PREFETCH  REQUESTED:    1502499  ISSUED:    1501620  USEFUL:      12931  USELESS:     134637
L2C AVERAGE MISS LATENCY: 165.492 cycles
LLC TOTAL     ACCESS:    1030807  HIT:     742884  MISS:     287923
LLC LOAD      ACCESS:      42890  HIT:      29809  MISS:      13081
LLC RFO       ACCESS:     206563  HIT:      34983  MISS:     171580
LLC PREFETCH  ACCESS:     556960  HIT:     454100  MISS:     102860
LLC WRITEBACK ACCESS:     224394  HIT:     223992  MISS:        402
LLC PREFETCH  REQUESTED:          0  ISSUED:          0  USEFUL:      10813  USELESS:      92634
LLC AVERAGE MISS LATENCY: 228.025 cycles
Major fault: 0 Minor fault: 5042
I-Shadow cache 408 bytes
Touched + WorthPF tables 98304 bytes 
MMA filter 174 bytes 
FNL filter 272 bytes 
TOTAL PREFETCHER STORAGE SIZE: 389974 bytes
CPU 0 L1I next line prefetcher final stats
CPU 0 L1D next line prefetcher final stats

DRAM Statistics
 CHANNEL 0
 RQ ROW_BUFFER_HIT:     101412  ROW_BUFFER_MISS:     186102
 DBUS_CONGESTED:     258336
 WQ ROW_BUFFER_HIT:      59944  ROW_BUFFER_MISS:     119131  FULL:          0

 AVG_CONGESTED_CYCLE: 6

CPU 0 Branch Prediction Accuracy: 98.6631% MPKI: 2.66884 Average ROB Occupancy at Mispredict: 77.1004

Branch types
NOT_BRANCH: 40018777 80.0376%
BRANCH_DIRECT_JUMP: 370861 0.741722%
BRANCH_INDIRECT: 83253 0.166506%
BRANCH_CONDITIONAL: 7877436 15.7549%
BRANCH_DIRECT_CALL: 722315 1.44463%
BRANCH_INDIRECT_CALL: 101901 0.203802%
BRANCH_RETURN: 825355 1.65071%
BRANCH_OTHER: 0 0%

