Initialize SIGNATURE TABLE
ST_SET: 1
ST_WAY: 256
ST_TAG_BIT: 16
ST_TAG_MASK: ffff

Initialize PATTERN TABLE
PT_SET: 512
PT_WAY: 4
SIG_DELTA_BIT: 7
C_SIG_BIT: 4
C_DELTA_BIT: 4

Initialize PREFETCH FILTER
FILTER_SET: 1024

*** ChampSim Multicore Out-of-Order Simulator ***

Warmup Instructions: 50000000
Simulation Instructions: 50000000
Number of CPUs: 1
LLC sets: 2048
LLC ways: 16
Off-chip DRAM Size: 4096 MB Channels: 1 Width: 64-bit Data Rate: 3200 MT/s

CPU 0 runs /Users/brandon/Documents/CoursesWi22/CSE240C/Homework1/ChampSim/ipc1_public/server_025.champsimtrace.xz
CPU 0 L1I next line prefetcher
CPU 0 L1D next line prefetcher
Heartbeat CPU 0 instructions: 10000003 cycles: 3527945 heartbeat IPC: 2.83451 cumulative IPC: 2.83451 (Simulation time: 0 hr 1 min 53 sec) 
Heartbeat CPU 0 instructions: 20000000 cycles: 7064331 heartbeat IPC: 2.82774 cumulative IPC: 2.83112 (Simulation time: 0 hr 3 min 41 sec) 
Heartbeat CPU 0 instructions: 30000001 cycles: 10592779 heartbeat IPC: 2.83411 cumulative IPC: 2.83212 (Simulation time: 0 hr 5 min 27 sec) 
Heartbeat CPU 0 instructions: 40000003 cycles: 14126880 heartbeat IPC: 2.82957 cumulative IPC: 2.83148 (Simulation time: 0 hr 7 min 19 sec) 
Heartbeat CPU 0 instructions: 50000001 cycles: 17659350 heartbeat IPC: 2.83088 cumulative IPC: 2.83136 (Simulation time: 0 hr 9 min 15 sec) 

Warmup complete CPU 0 instructions: 50000001 cycles: 17659350 (Simulation time: 0 hr 9 min 15 sec) 

Heartbeat CPU 0 instructions: 60000002 cycles: 24518181 heartbeat IPC: 1.45797 cumulative IPC: 1.45797 (Simulation time: 0 hr 11 min 5 sec) 
Heartbeat CPU 0 instructions: 70000000 cycles: 31496977 heartbeat IPC: 1.43291 cumulative IPC: 1.44533 (Simulation time: 0 hr 12 min 52 sec) 
Heartbeat CPU 0 instructions: 80000002 cycles: 38390522 heartbeat IPC: 1.45063 cumulative IPC: 1.4471 (Simulation time: 0 hr 14 min 22 sec) 
Heartbeat CPU 0 instructions: 90000001 cycles: 44935092 heartbeat IPC: 1.52798 cumulative IPC: 1.4665 (Simulation time: 0 hr 15 min 42 sec) 
Heartbeat CPU 0 instructions: 100000003 cycles: 51174011 heartbeat IPC: 1.60284 cumulative IPC: 1.49188 (Simulation time: 0 hr 16 min 52 sec) 
Finished CPU 0 instructions: 50000002 cycles: 33514661 cumulative IPC: 1.49188 (Simulation time: 0 hr 16 min 52 sec) 

ChampSim completed all CPUs

Region of Interest Statistics

CPU 0 cumulative IPC: 1.49188 instructions: 50000002 cycles: 33514661
L1D TOTAL     ACCESS:   19984884  HIT:   18559510  MISS:    1425374
L1D LOAD      ACCESS:    6960396  HIT:    6339882  MISS:     620514
L1D RFO       ACCESS:    6379210  HIT:    6131212  MISS:     247998
L1D PREFETCH  ACCESS:    6645278  HIT:    6088416  MISS:     556862
L1D WRITEBACK ACCESS:          0  HIT:          0  MISS:          0
L1D PREFETCH  REQUESTED:    7001936  ISSUED:    6827391  USEFUL:     129610  USELESS:     427244
L1D AVERAGE MISS LATENCY: 23.7247 cycles
L1I TOTAL     ACCESS:   14174775  HIT:   10818354  MISS:    3356421
L1I LOAD      ACCESS:    9495824  HIT:    9408335  MISS:      87489
L1I RFO       ACCESS:          0  HIT:          0  MISS:          0
L1I PREFETCH  ACCESS:    4678951  HIT:    1410019  MISS:    3268932
L1I WRITEBACK ACCESS:          0  HIT:          0  MISS:          0
L1I PREFETCH  REQUESTED:    4913824  ISSUED:    4911501  USEFUL:    2434482  USELESS:     834458
L1I AVERAGE MISS LATENCY: 18.9392 cycles
L2C TOTAL     ACCESS:    6329346  HIT:    5537196  MISS:     792150
L2C LOAD      ACCESS:     618914  HIT:     492034  MISS:     126880
L2C RFO       ACCESS:     246552  HIT:     168025  MISS:      78527
L2C PREFETCH  ACCESS:    4967145  HIT:    4386744  MISS:     580401
L2C WRITEBACK ACCESS:     496735  HIT:     490393  MISS:       6342
L2C PREFETCH  REQUESTED:    5782562  ISSUED:    5768722  USEFUL:      12765  USELESS:     567300
L2C AVERAGE MISS LATENCY: 38.0391 cycles
LLC TOTAL     ACCESS:    2353713  HIT:    2322100  MISS:      31613
LLC LOAD      ACCESS:     126715  HIT:     123432  MISS:       3283
LLC RFO       ACCESS:      78498  HIT:      67766  MISS:      10732
LLC PREFETCH  ACCESS:    2012163  HIT:    1994792  MISS:      17371
LLC WRITEBACK ACCESS:     136337  HIT:     136110  MISS:        227
LLC PREFETCH  REQUESTED:          0  ISSUED:          0  USEFUL:       1229  USELESS:      15216
LLC AVERAGE MISS LATENCY: 176.6 cycles
Major fault: 0 Minor fault: 2457
I-Shadow cache 408 bytes
Touched + WorthPF tables 98304 bytes 
MMA filter 174 bytes 
FNL filter 272 bytes 
TOTAL PREFETCHER STORAGE SIZE: 389974 bytes
CPU 0 L1I next line prefetcher final stats
CPU 0 L1D next line prefetcher final stats

DRAM Statistics
 CHANNEL 0
 RQ ROW_BUFFER_HIT:       9965  ROW_BUFFER_MISS:      21416
 DBUS_CONGESTED:      19723
 WQ ROW_BUFFER_HIT:       1359  ROW_BUFFER_MISS:      11856  FULL:          0

 AVG_CONGESTED_CYCLE: 6

CPU 0 Branch Prediction Accuracy: 99.8142% MPKI: 0.34676 Average ROB Occupancy at Mispredict: 202.306

Branch types
NOT_BRANCH: 40668922 81.3378%
BRANCH_DIRECT_JUMP: 531701 1.0634%
BRANCH_INDIRECT: 199025 0.39805%
BRANCH_CONDITIONAL: 6211499 12.423%
BRANCH_DIRECT_CALL: 1010912 2.02182%
BRANCH_INDIRECT_CALL: 183501 0.367002%
BRANCH_RETURN: 1194416 2.38883%
BRANCH_OTHER: 0 0%

