Initialize SIGNATURE TABLE
ST_SET: 1
ST_WAY: 256
ST_TAG_BIT: 16
ST_TAG_MASK: ffff

Initialize PATTERN TABLE
PT_SET: 512
PT_WAY: 4
SIG_DELTA_BIT: 7
C_SIG_BIT: 4
C_DELTA_BIT: 4

Initialize PREFETCH FILTER
FILTER_SET: 1024

*** ChampSim Multicore Out-of-Order Simulator ***

Warmup Instructions: 50000000
Simulation Instructions: 50000000
Number of CPUs: 1
LLC sets: 2048
LLC ways: 16
Off-chip DRAM Size: 4096 MB Channels: 1 Width: 64-bit Data Rate: 3200 MT/s

CPU 0 runs /Users/brandon/Documents/CoursesWi22/CSE240C/Homework1/ChampSim/ipc1_public/server_010.champsimtrace.xz
CPU 0 L1I next line prefetcher
CPU 0 L1D next line prefetcher
Heartbeat CPU 0 instructions: 10000000 cycles: 3193823 heartbeat IPC: 3.13104 cumulative IPC: 3.13104 (Simulation time: 0 hr 1 min 33 sec) 
Heartbeat CPU 0 instructions: 20000002 cycles: 6383883 heartbeat IPC: 3.13474 cumulative IPC: 3.13289 (Simulation time: 0 hr 3 min 22 sec) 
Heartbeat CPU 0 instructions: 30000001 cycles: 9577526 heartbeat IPC: 3.13122 cumulative IPC: 3.13233 (Simulation time: 0 hr 5 min 10 sec) 
Heartbeat CPU 0 instructions: 40000000 cycles: 12767470 heartbeat IPC: 3.13485 cumulative IPC: 3.13296 (Simulation time: 0 hr 7 min 0 sec) 
Heartbeat CPU 0 instructions: 50000003 cycles: 15962888 heartbeat IPC: 3.12948 cumulative IPC: 3.13227 (Simulation time: 0 hr 8 min 50 sec) 

Warmup complete CPU 0 instructions: 50000003 cycles: 15962888 (Simulation time: 0 hr 8 min 50 sec) 

Heartbeat CPU 0 instructions: 60000001 cycles: 23131959 heartbeat IPC: 1.39488 cumulative IPC: 1.39488 (Simulation time: 0 hr 10 min 30 sec) 
Heartbeat CPU 0 instructions: 70000000 cycles: 30348362 heartbeat IPC: 1.38573 cumulative IPC: 1.39029 (Simulation time: 0 hr 12 min 8 sec) 
Heartbeat CPU 0 instructions: 80000003 cycles: 37605203 heartbeat IPC: 1.37801 cumulative IPC: 1.38617 (Simulation time: 0 hr 13 min 48 sec) 
Heartbeat CPU 0 instructions: 90000002 cycles: 44639404 heartbeat IPC: 1.42163 cumulative IPC: 1.39487 (Simulation time: 0 hr 15 min 26 sec) 
Heartbeat CPU 0 instructions: 100000003 cycles: 65243437 heartbeat IPC: 0.485342 cumulative IPC: 1.0146 (Simulation time: 0 hr 17 min 41 sec) 
Finished CPU 0 instructions: 50000000 cycles: 49280549 cumulative IPC: 1.0146 (Simulation time: 0 hr 17 min 41 sec) 

ChampSim completed all CPUs

Region of Interest Statistics

CPU 0 cumulative IPC: 1.0146 instructions: 50000000 cycles: 49280549
L1D TOTAL     ACCESS:   19875789  HIT:   16650664  MISS:    3225125
L1D LOAD      ACCESS:    7694551  HIT:    6100657  MISS:    1593894
L1D RFO       ACCESS:    4710264  HIT:    4615918  MISS:      94346
L1D PREFETCH  ACCESS:    7470974  HIT:    5934089  MISS:    1536885
L1D WRITEBACK ACCESS:          0  HIT:          0  MISS:          0
L1D PREFETCH  REQUESTED:    7727766  ISSUED:    7631054  USEFUL:     116387  USELESS:    1420470
L1D AVERAGE MISS LATENCY: 22.8202 cycles
L1I TOTAL     ACCESS:   12768546  HIT:   11055473  MISS:    1713073
L1I LOAD      ACCESS:    9950060  HIT:    9837737  MISS:     112323
L1I RFO       ACCESS:          0  HIT:          0  MISS:          0
L1I PREFETCH  ACCESS:    2818486  HIT:    1217736  MISS:    1600750
L1I WRITEBACK ACCESS:          0  HIT:          0  MISS:          0
L1I PREFETCH  REQUESTED:    2979744  ISSUED:    2978986  USEFUL:    1133765  USELESS:     467004
L1I AVERAGE MISS LATENCY: 29.246 cycles
L2C TOTAL     ACCESS:    6207363  HIT:    5058454  MISS:    1148909
L2C LOAD      ACCESS:    1595080  HIT:    1370977  MISS:     224103
L2C RFO       ACCESS:      93285  HIT:      48434  MISS:      44851
L2C PREFETCH  ACCESS:    4253644  HIT:    3375164  MISS:     878480
L2C WRITEBACK ACCESS:     265354  HIT:     263879  MISS:       1475
L2C PREFETCH  REQUESTED:    5811299  ISSUED:    5809547  USEFUL:      21600  USELESS:     858137
L2C AVERAGE MISS LATENCY: 46.7393 cycles
LLC TOTAL     ACCESS:    2320131  HIT:    2196994  MISS:     123137
LLC LOAD      ACCESS:     224035  HIT:     207562  MISS:      16473
LLC RFO       ACCESS:      44849  HIT:      35214  MISS:       9635
LLC PREFETCH  ACCESS:    1901079  HIT:    1804232  MISS:      96847
LLC WRITEBACK ACCESS:     150168  HIT:     149986  MISS:        182
LLC PREFETCH  REQUESTED:          0  ISSUED:          0  USEFUL:       8511  USELESS:      88902
LLC AVERAGE MISS LATENCY: 176.536 cycles
Major fault: 0 Minor fault: 5595
I-Shadow cache 408 bytes
Touched + WorthPF tables 98304 bytes 
MMA filter 174 bytes 
FNL filter 272 bytes 
TOTAL PREFETCHER STORAGE SIZE: 389974 bytes
CPU 0 L1I next line prefetcher final stats
CPU 0 L1D next line prefetcher final stats

DRAM Statistics
 CHANNEL 0
 RQ ROW_BUFFER_HIT:      18285  ROW_BUFFER_MISS:     104652
 DBUS_CONGESTED:      56409
 WQ ROW_BUFFER_HIT:      10160  ROW_BUFFER_MISS:      43737  FULL:          0

 AVG_CONGESTED_CYCLE: 5

CPU 0 Branch Prediction Accuracy: 99.5528% MPKI: 0.89798 Average ROB Occupancy at Mispredict: 129.98

Branch types
NOT_BRANCH: 39958787 79.9176%
BRANCH_DIRECT_JUMP: 449946 0.899892%
BRANCH_INDIRECT: 140210 0.28042%
BRANCH_CONDITIONAL: 7679677 15.3594%
BRANCH_DIRECT_CALL: 701578 1.40316%
BRANCH_INDIRECT_CALL: 168971 0.337942%
BRANCH_RETURN: 900560 1.80112%
BRANCH_OTHER: 0 0%

