Initialize SIGNATURE TABLE
ST_SET: 1
ST_WAY: 256
ST_TAG_BIT: 16
ST_TAG_MASK: ffff

Initialize PATTERN TABLE
PT_SET: 512
PT_WAY: 4
SIG_DELTA_BIT: 7
C_SIG_BIT: 4
C_DELTA_BIT: 4

Initialize PREFETCH FILTER
FILTER_SET: 1024

*** ChampSim Multicore Out-of-Order Simulator ***

Warmup Instructions: 50000000
Simulation Instructions: 50000000
Number of CPUs: 1
LLC sets: 2048
LLC ways: 16
Off-chip DRAM Size: 4096 MB Channels: 1 Width: 64-bit Data Rate: 3200 MT/s

CPU 0 runs /Users/brandon/Documents/CoursesWi22/CSE240C/Homework1/ChampSim/ipc1_public/server_020.champsimtrace.xz
CPU 0 L1I next line prefetcher
CPU 0 L1D next line prefetcher
Heartbeat CPU 0 instructions: 10000003 cycles: 3621321 heartbeat IPC: 2.76142 cumulative IPC: 2.76142 (Simulation time: 0 hr 1 min 45 sec) 
Heartbeat CPU 0 instructions: 20000002 cycles: 7246785 heartbeat IPC: 2.75827 cumulative IPC: 2.75984 (Simulation time: 0 hr 3 min 46 sec) 
Heartbeat CPU 0 instructions: 30000001 cycles: 10865516 heartbeat IPC: 2.7634 cumulative IPC: 2.76103 (Simulation time: 0 hr 5 min 48 sec) 
Heartbeat CPU 0 instructions: 40000002 cycles: 14485568 heartbeat IPC: 2.76239 cumulative IPC: 2.76137 (Simulation time: 0 hr 7 min 52 sec) 
Heartbeat CPU 0 instructions: 50000001 cycles: 18118783 heartbeat IPC: 2.75238 cumulative IPC: 2.75957 (Simulation time: 0 hr 9 min 56 sec) 

Warmup complete CPU 0 instructions: 50000001 cycles: 18118783 (Simulation time: 0 hr 9 min 56 sec) 

Heartbeat CPU 0 instructions: 60000003 cycles: 35461311 heartbeat IPC: 0.576617 cumulative IPC: 0.576617 (Simulation time: 0 hr 12 min 41 sec) 
Heartbeat CPU 0 instructions: 70000002 cycles: 52742434 heartbeat IPC: 0.578666 cumulative IPC: 0.57764 (Simulation time: 0 hr 15 min 24 sec) 
Heartbeat CPU 0 instructions: 80000002 cycles: 70022122 heartbeat IPC: 0.578714 cumulative IPC: 0.577998 (Simulation time: 0 hr 17 min 39 sec) 
Heartbeat CPU 0 instructions: 90000001 cycles: 87229321 heartbeat IPC: 0.581152 cumulative IPC: 0.578783 (Simulation time: 0 hr 18 min 35 sec) 
Heartbeat CPU 0 instructions: 100000002 cycles: 104503360 heartbeat IPC: 0.578903 cumulative IPC: 0.578807 (Simulation time: 0 hr 19 min 15 sec) 
Finished CPU 0 instructions: 50000001 cycles: 86384577 cumulative IPC: 0.578807 (Simulation time: 0 hr 19 min 15 sec) 

ChampSim completed all CPUs

Region of Interest Statistics

CPU 0 cumulative IPC: 0.578807 instructions: 50000001 cycles: 86384577
L1D TOTAL     ACCESS:   18640198  HIT:   16436003  MISS:    2204195
L1D LOAD      ACCESS:    7049269  HIT:    6330896  MISS:     718373
L1D RFO       ACCESS:    5807568  HIT:    4861565  MISS:     946003
L1D PREFETCH  ACCESS:    5783361  HIT:    5243542  MISS:     539819
L1D WRITEBACK ACCESS:          0  HIT:          0  MISS:          0
L1D PREFETCH  REQUESTED:    7090359  ISSUED:    6888853  USEFUL:     200549  USELESS:     339189
L1D AVERAGE MISS LATENCY: 175.759 cycles
L1I TOTAL     ACCESS:   14977554  HIT:   12094948  MISS:    2882606
L1I LOAD      ACCESS:   10094139  HIT:   10060461  MISS:      33678
L1I RFO       ACCESS:          0  HIT:          0  MISS:          0
L1I PREFETCH  ACCESS:    4883415  HIT:    2034487  MISS:    2848928
L1I WRITEBACK ACCESS:          0  HIT:          0  MISS:          0
L1I PREFETCH  REQUESTED:    5075849  ISSUED:    5075847  USEFUL:    2505721  USELESS:     343233
L1I AVERAGE MISS LATENCY: 18.0524 cycles
L2C TOTAL     ACCESS:    7319385  HIT:    5462377  MISS:    1857008
L2C LOAD      ACCESS:     509583  HIT:     244485  MISS:     265098
L2C RFO       ACCESS:     945560  HIT:      21911  MISS:     923649
L2C PREFETCH  ACCESS:    4700642  HIT:    4034413  MISS:     666229
L2C WRITEBACK ACCESS:    1163600  HIT:    1161568  MISS:       2032
L2C PREFETCH  REQUESTED:    4901183  ISSUED:    4894212  USEFUL:      23619  USELESS:     641404
L2C AVERAGE MISS LATENCY: 213.791 cycles
LLC TOTAL     ACCESS:    4194556  HIT:    2728664  MISS:    1465892
LLC LOAD      ACCESS:     264982  HIT:     162228  MISS:     102754
LLC RFO       ACCESS:     923616  HIT:     136907  MISS:     786709
LLC PREFETCH  ACCESS:    1909775  HIT:    1335124  MISS:     574651
LLC WRITEBACK ACCESS:    1096183  HIT:    1094405  MISS:       1778
LLC PREFETCH  REQUESTED:          0  ISSUED:          0  USEFUL:      33799  USELESS:     540753
LLC AVERAGE MISS LATENCY: 280.242 cycles
Major fault: 0 Minor fault: 22091
I-Shadow cache 408 bytes
Touched + WorthPF tables 98304 bytes 
MMA filter 174 bytes 
FNL filter 272 bytes 
TOTAL PREFETCHER STORAGE SIZE: 389974 bytes
CPU 0 L1I next line prefetcher final stats
CPU 0 L1D next line prefetcher final stats

DRAM Statistics
 CHANNEL 0
 RQ ROW_BUFFER_HIT:     416465  ROW_BUFFER_MISS:    1047348
 DBUS_CONGESTED:    1466956
 WQ ROW_BUFFER_HIT:     249094  ROW_BUFFER_MISS:     643746  FULL:          0

 AVG_CONGESTED_CYCLE: 6

CPU 0 Branch Prediction Accuracy: 99.712% MPKI: 0.47638 Average ROB Occupancy at Mispredict: 214.274

Branch types
NOT_BRANCH: 41729595 83.4592%
BRANCH_DIRECT_JUMP: 458221 0.916442%
BRANCH_INDIRECT: 49088 0.098176%
BRANCH_CONDITIONAL: 5938538 11.8771%
BRANCH_DIRECT_CALL: 745133 1.49027%
BRANCH_INDIRECT_CALL: 167110 0.33422%
BRANCH_RETURN: 912224 1.82445%
BRANCH_OTHER: 0 0%

