Initialize SIGNATURE TABLE
ST_SET: 1
ST_WAY: 256
ST_TAG_BIT: 16
ST_TAG_MASK: ffff

Initialize PATTERN TABLE
PT_SET: 512
PT_WAY: 4
SIG_DELTA_BIT: 7
C_SIG_BIT: 4
C_DELTA_BIT: 4

Initialize PREFETCH FILTER
FILTER_SET: 1024

*** ChampSim Multicore Out-of-Order Simulator ***

Warmup Instructions: 50000000
Simulation Instructions: 50000000
Number of CPUs: 1
LLC sets: 2048
LLC ways: 16
Off-chip DRAM Size: 4096 MB Channels: 1 Width: 64-bit Data Rate: 3200 MT/s

CPU 0 runs /Users/brandon/Documents/CoursesWi22/CSE240C/Homework1/ChampSim/ipc1_public/server_015.champsimtrace.xz
CPU 0 L1I next line prefetcher
CPU 0 L1D next line prefetcher
Heartbeat CPU 0 instructions: 10000002 cycles: 3519383 heartbeat IPC: 2.84141 cumulative IPC: 2.84141 (Simulation time: 0 hr 1 min 41 sec) 
Heartbeat CPU 0 instructions: 20000001 cycles: 7106933 heartbeat IPC: 2.78742 cumulative IPC: 2.81415 (Simulation time: 0 hr 3 min 39 sec) 
Heartbeat CPU 0 instructions: 30000001 cycles: 10645888 heartbeat IPC: 2.82569 cumulative IPC: 2.81799 (Simulation time: 0 hr 5 min 38 sec) 
Heartbeat CPU 0 instructions: 40000002 cycles: 14193929 heartbeat IPC: 2.81846 cumulative IPC: 2.81811 (Simulation time: 0 hr 7 min 38 sec) 
Heartbeat CPU 0 instructions: 50000002 cycles: 17742189 heartbeat IPC: 2.81828 cumulative IPC: 2.81814 (Simulation time: 0 hr 9 min 38 sec) 

Warmup complete CPU 0 instructions: 50000002 cycles: 17742189 (Simulation time: 0 hr 9 min 38 sec) 

Heartbeat CPU 0 instructions: 60000002 cycles: 24041071 heartbeat IPC: 1.58758 cumulative IPC: 1.58758 (Simulation time: 0 hr 11 min 39 sec) 
Heartbeat CPU 0 instructions: 70000003 cycles: 30351160 heartbeat IPC: 1.58476 cumulative IPC: 1.58617 (Simulation time: 0 hr 13 min 42 sec) 
Heartbeat CPU 0 instructions: 80000000 cycles: 36660969 heartbeat IPC: 1.58483 cumulative IPC: 1.58573 (Simulation time: 0 hr 15 min 42 sec) 
Heartbeat CPU 0 instructions: 90000000 cycles: 42974290 heartbeat IPC: 1.58395 cumulative IPC: 1.58528 (Simulation time: 0 hr 17 min 24 sec) 
Heartbeat CPU 0 instructions: 100000002 cycles: 49284714 heartbeat IPC: 1.58468 cumulative IPC: 1.58516 (Simulation time: 0 hr 18 min 17 sec) 
Finished CPU 0 instructions: 50000000 cycles: 31542525 cumulative IPC: 1.58516 (Simulation time: 0 hr 18 min 17 sec) 

ChampSim completed all CPUs

Region of Interest Statistics

CPU 0 cumulative IPC: 1.58516 instructions: 50000000 cycles: 31542525
L1D TOTAL     ACCESS:   21842526  HIT:   21825759  MISS:      16767
L1D LOAD      ACCESS:    6698761  HIT:    6698231  MISS:        530
L1D RFO       ACCESS:    8561388  HIT:    8561293  MISS:         95
L1D PREFETCH  ACCESS:    6582377  HIT:    6566235  MISS:      16142
L1D WRITEBACK ACCESS:          0  HIT:          0  MISS:          0
L1D PREFETCH  REQUESTED:    6698820  ISSUED:    6586748  USEFUL:         84  USELESS:      16055
L1D AVERAGE MISS LATENCY: 16.4414 cycles
L1I TOTAL     ACCESS:   15640635  HIT:   13097664  MISS:    2542971
L1I LOAD      ACCESS:    9786468  HIT:    9741324  MISS:      45144
L1I RFO       ACCESS:          0  HIT:          0  MISS:          0
L1I PREFETCH  ACCESS:    5854167  HIT:    3356340  MISS:    2497827
L1I WRITEBACK ACCESS:          0  HIT:          0  MISS:          0
L1I PREFETCH  REQUESTED:    6050866  ISSUED:    6050866  USEFUL:    2123977  USELESS:     373840
L1I AVERAGE MISS LATENCY: 14.2899 cycles
L2C TOTAL     ACCESS:    3496597  HIT:    3496268  MISS:        329
L2C LOAD      ACCESS:      27736  HIT:      27671  MISS:         65
L2C RFO       ACCESS:         94  HIT:         92  MISS:          2
L2C PREFETCH  ACCESS:    3468418  HIT:    3468156  MISS:        262
L2C WRITEBACK ACCESS:        349  HIT:        349  MISS:          0
L2C PREFETCH  REQUESTED:    2584873  ISSUED:    2584726  USEFUL:        110  USELESS:        133
L2C AVERAGE MISS LATENCY: 115.708 cycles
LLC TOTAL     ACCESS:     469167  HIT:     468315  MISS:        852
LLC LOAD      ACCESS:         65  HIT:         50  MISS:         15
LLC RFO       ACCESS:          2  HIT:          0  MISS:          2
LLC PREFETCH  ACCESS:     469004  HIT:     468169  MISS:        835
LLC WRITEBACK ACCESS:         96  HIT:         96  MISS:          0
LLC PREFETCH  REQUESTED:          0  ISSUED:          0  USEFUL:          8  USELESS:        143
LLC AVERAGE MISS LATENCY: 378.174 cycles
Major fault: 0 Minor fault: 1888
I-Shadow cache 408 bytes
Touched + WorthPF tables 98304 bytes 
MMA filter 174 bytes 
FNL filter 272 bytes 
TOTAL PREFETCHER STORAGE SIZE: 389974 bytes
CPU 0 L1I next line prefetcher final stats
CPU 0 L1D next line prefetcher final stats

DRAM Statistics
 CHANNEL 0
 RQ ROW_BUFFER_HIT:        141  ROW_BUFFER_MISS:        711
 DBUS_CONGESTED:        565
 WQ ROW_BUFFER_HIT:         70  ROW_BUFFER_MISS:        567  FULL:          0

 AVG_CONGESTED_CYCLE: 6

CPU 0 Branch Prediction Accuracy: 99.9085% MPKI: 0.15428 Average ROB Occupancy at Mispredict: 286.574

Branch types
NOT_BRANCH: 41573150 83.1463%
BRANCH_DIRECT_JUMP: 436254 0.872508%
BRANCH_INDIRECT: 0 0%
BRANCH_CONDITIONAL: 5395897 10.7918%
BRANCH_DIRECT_CALL: 1173391 2.34678%
BRANCH_INDIRECT_CALL: 123912 0.247824%
BRANCH_RETURN: 1297311 2.59462%
BRANCH_OTHER: 0 0%

