Initialize SIGNATURE TABLE
ST_SET: 1
ST_WAY: 256
ST_TAG_BIT: 16
ST_TAG_MASK: ffff

Initialize PATTERN TABLE
PT_SET: 512
PT_WAY: 4
SIG_DELTA_BIT: 7
C_SIG_BIT: 4
C_DELTA_BIT: 4

Initialize PREFETCH FILTER
FILTER_SET: 1024

*** ChampSim Multicore Out-of-Order Simulator ***

Warmup Instructions: 50000000
Simulation Instructions: 50000000
Number of CPUs: 1
LLC sets: 2048
LLC ways: 16
Off-chip DRAM Size: 4096 MB Channels: 1 Width: 64-bit Data Rate: 3200 MT/s

CPU 0 runs /Users/brandon/Documents/CoursesWi22/CSE240C/Homework1/ChampSim/ipc1_public/server_001.champsimtrace.xz
CPU 0 L1I next line prefetcher
CPU 0 L1D next line prefetcher
Heartbeat CPU 0 instructions: 10000002 cycles: 3155085 heartbeat IPC: 3.16949 cumulative IPC: 3.16949 (Simulation time: 0 hr 1 min 29 sec) 
Heartbeat CPU 0 instructions: 20000000 cycles: 6369400 heartbeat IPC: 3.11108 cumulative IPC: 3.14001 (Simulation time: 0 hr 3 min 17 sec) 
Heartbeat CPU 0 instructions: 30000003 cycles: 9555056 heartbeat IPC: 3.13907 cumulative IPC: 3.1397 (Simulation time: 0 hr 5 min 1 sec) 
Heartbeat CPU 0 instructions: 40000002 cycles: 12761915 heartbeat IPC: 3.11832 cumulative IPC: 3.13433 (Simulation time: 0 hr 6 min 48 sec) 
Heartbeat CPU 0 instructions: 50000003 cycles: 15980500 heartbeat IPC: 3.10696 cumulative IPC: 3.12881 (Simulation time: 0 hr 8 min 36 sec) 

Warmup complete CPU 0 instructions: 50000003 cycles: 15980500 (Simulation time: 0 hr 8 min 36 sec) 

Heartbeat CPU 0 instructions: 60000000 cycles: 23055827 heartbeat IPC: 1.41336 cumulative IPC: 1.41336 (Simulation time: 0 hr 10 min 12 sec) 
Heartbeat CPU 0 instructions: 70000001 cycles: 29882210 heartbeat IPC: 1.4649 cumulative IPC: 1.43867 (Simulation time: 0 hr 11 min 50 sec) 
Heartbeat CPU 0 instructions: 80000002 cycles: 36673672 heartbeat IPC: 1.47244 cumulative IPC: 1.44975 (Simulation time: 0 hr 13 min 27 sec) 
Heartbeat CPU 0 instructions: 90000002 cycles: 43804647 heartbeat IPC: 1.40233 cumulative IPC: 1.4376 (Simulation time: 0 hr 15 min 6 sec) 
Heartbeat CPU 0 instructions: 100000003 cycles: 50548088 heartbeat IPC: 1.48292 cumulative IPC: 1.44644 (Simulation time: 0 hr 16 min 39 sec) 
Finished CPU 0 instructions: 50000000 cycles: 34567588 cumulative IPC: 1.44644 (Simulation time: 0 hr 16 min 39 sec) 

ChampSim completed all CPUs

Region of Interest Statistics

CPU 0 cumulative IPC: 1.44644 instructions: 50000000 cycles: 34567588
L1D TOTAL     ACCESS:   17591464  HIT:   17080359  MISS:     511105
L1D LOAD      ACCESS:    6432022  HIT:    6226212  MISS:     205810
L1D RFO       ACCESS:    5053226  HIT:    4970628  MISS:      82598
L1D PREFETCH  ACCESS:    6106216  HIT:    5883519  MISS:     222697
L1D WRITEBACK ACCESS:          0  HIT:          0  MISS:          0
L1D PREFETCH  REQUESTED:    6461351  ISSUED:    6284185  USEFUL:     130945  USELESS:      91880
L1D AVERAGE MISS LATENCY: 96.1435 cycles
L1I TOTAL     ACCESS:   10089382  HIT:    9181854  MISS:     907528
L1I LOAD      ACCESS:    8243927  HIT:    8205409  MISS:      38518
L1I RFO       ACCESS:          0  HIT:          0  MISS:          0
L1I PREFETCH  ACCESS:    1845455  HIT:     976445  MISS:     869010
L1I WRITEBACK ACCESS:          0  HIT:          0  MISS:          0
L1I PREFETCH  REQUESTED:    1900391  ISSUED:    1900293  USEFUL:     652834  USELESS:     216164
L1I AVERAGE MISS LATENCY: 29.8618 cycles
L2C TOTAL     ACCESS:    2116211  HIT:    1640768  MISS:     475443
L2C LOAD      ACCESS:     180395  HIT:      88824  MISS:      91571
L2C RFO       ACCESS:      80917  HIT:      10313  MISS:      70604
L2C PREFETCH  ACCESS:    1647043  HIT:    1334257  MISS:     312786
L2C WRITEBACK ACCESS:     207856  HIT:     207374  MISS:        482
L2C PREFETCH  REQUESTED:    2195333  ISSUED:    2192318  USEFUL:      20319  USELESS:     292870
L2C AVERAGE MISS LATENCY: 127.665 cycles
LLC TOTAL     ACCESS:    1226313  HIT:     894362  MISS:     331951
LLC LOAD      ACCESS:      91464  HIT:      60947  MISS:      30517
LLC RFO       ACCESS:      70598  HIT:       6860  MISS:      63738
LLC PREFETCH  ACCESS:     896432  HIT:     659020  MISS:     237412
LLC WRITEBACK ACCESS:     167819  HIT:     167535  MISS:        284
LLC PREFETCH  REQUESTED:          0  ISSUED:          0  USEFUL:      26266  USELESS:     207142
LLC AVERAGE MISS LATENCY: 230.128 cycles
Major fault: 0 Minor fault: 16698
I-Shadow cache 408 bytes
Touched + WorthPF tables 98304 bytes 
MMA filter 174 bytes 
FNL filter 272 bytes 
TOTAL PREFETCHER STORAGE SIZE: 389974 bytes
CPU 0 L1I next line prefetcher final stats
CPU 0 L1D next line prefetcher final stats

DRAM Statistics
 CHANNEL 0
 RQ ROW_BUFFER_HIT:     101903  ROW_BUFFER_MISS:     229703
 DBUS_CONGESTED:     230643
 WQ ROW_BUFFER_HIT:      35453  ROW_BUFFER_MISS:     123816  FULL:          0

 AVG_CONGESTED_CYCLE: 6

CPU 0 Branch Prediction Accuracy: 99.5889% MPKI: 0.70108 Average ROB Occupancy at Mispredict: 116.28

Branch types
NOT_BRANCH: 41473584 82.9472%
BRANCH_DIRECT_JUMP: 347941 0.695882%
BRANCH_INDIRECT: 148212 0.296424%
BRANCH_CONDITIONAL: 6817277 13.6346%
BRANCH_DIRECT_CALL: 570725 1.14145%
BRANCH_INDIRECT_CALL: 25133 0.050266%
BRANCH_RETURN: 617123 1.23425%
BRANCH_OTHER: 0 0%

