Initialize SIGNATURE TABLE
ST_SET: 1
ST_WAY: 256
ST_TAG_BIT: 16
ST_TAG_MASK: ffff

Initialize PATTERN TABLE
PT_SET: 512
PT_WAY: 4
SIG_DELTA_BIT: 7
C_SIG_BIT: 4
C_DELTA_BIT: 4

Initialize PREFETCH FILTER
FILTER_SET: 1024

*** ChampSim Multicore Out-of-Order Simulator ***

Warmup Instructions: 50000000
Simulation Instructions: 50000000
Number of CPUs: 1
LLC sets: 2048
LLC ways: 16
Off-chip DRAM Size: 4096 MB Channels: 1 Width: 64-bit Data Rate: 3200 MT/s

CPU 0 runs /Users/brandon/Documents/CoursesWi22/CSE240C/Homework1/ChampSim/ipc1_public/server_009.champsimtrace.xz
CPU 0 L1I next line prefetcher
CPU 0 L1D next line prefetcher
Heartbeat CPU 0 instructions: 10000003 cycles: 3195817 heartbeat IPC: 3.12909 cumulative IPC: 3.12909 (Simulation time: 0 hr 1 min 34 sec) 
Heartbeat CPU 0 instructions: 20000001 cycles: 6384185 heartbeat IPC: 3.1364 cumulative IPC: 3.13274 (Simulation time: 0 hr 3 min 22 sec) 
Heartbeat CPU 0 instructions: 30000002 cycles: 9586988 heartbeat IPC: 3.12227 cumulative IPC: 3.12924 (Simulation time: 0 hr 5 min 10 sec) 
Heartbeat CPU 0 instructions: 40000003 cycles: 12786472 heartbeat IPC: 3.1255 cumulative IPC: 3.12831 (Simulation time: 0 hr 7 min 0 sec) 
Heartbeat CPU 0 instructions: 50000000 cycles: 16042736 heartbeat IPC: 3.071 cumulative IPC: 3.11668 (Simulation time: 0 hr 8 min 51 sec) 

Warmup complete CPU 0 instructions: 50000004 cycles: 16042737 (Simulation time: 0 hr 8 min 51 sec) 

Heartbeat CPU 0 instructions: 60000002 cycles: 31648106 heartbeat IPC: 0.640805 cumulative IPC: 0.640805 (Simulation time: 0 hr 11 min 11 sec) 
Heartbeat CPU 0 instructions: 70000003 cycles: 52661633 heartbeat IPC: 0.475884 cumulative IPC: 0.546166 (Simulation time: 0 hr 14 min 3 sec) 
Heartbeat CPU 0 instructions: 80000000 cycles: 59753940 heartbeat IPC: 1.40998 cumulative IPC: 0.686323 (Simulation time: 0 hr 15 min 40 sec) 
Heartbeat CPU 0 instructions: 90000001 cycles: 67000279 heartbeat IPC: 1.38001 cumulative IPC: 0.784967 (Simulation time: 0 hr 17 min 8 sec) 
Heartbeat CPU 0 instructions: 100000003 cycles: 74130531 heartbeat IPC: 1.40248 cumulative IPC: 0.860766 (Simulation time: 0 hr 18 min 1 sec) 
Finished CPU 0 instructions: 50000003 cycles: 58087795 cumulative IPC: 0.860766 (Simulation time: 0 hr 18 min 1 sec) 

ChampSim completed all CPUs

Region of Interest Statistics

CPU 0 cumulative IPC: 0.860766 instructions: 50000003 cycles: 58087795
L1D TOTAL     ACCESS:   21599805  HIT:   17020333  MISS:    4579472
L1D LOAD      ACCESS:    8616998  HIT:    6335937  MISS:    2281061
L1D RFO       ACCESS:    4579414  HIT:    4475000  MISS:     104414
L1D PREFETCH  ACCESS:    8403393  HIT:    6209396  MISS:    2193997
L1D WRITEBACK ACCESS:          0  HIT:          0  MISS:          0
L1D PREFETCH  REQUESTED:    8649506  ISSUED:    8552595  USEFUL:     105557  USELESS:    2088439
L1D AVERAGE MISS LATENCY: 20.4262 cycles
L1I TOTAL     ACCESS:   13180152  HIT:   11654292  MISS:    1525860
L1I LOAD      ACCESS:   10758675  HIT:   10656741  MISS:     101934
L1I RFO       ACCESS:          0  HIT:          0  MISS:          0
L1I PREFETCH  ACCESS:    2421477  HIT:     997551  MISS:    1423926
L1I WRITEBACK ACCESS:          0  HIT:          0  MISS:          0
L1I PREFETCH  REQUESTED:    2569523  ISSUED:    2569051  USEFUL:    1017648  USELESS:     406276
L1I AVERAGE MISS LATENCY: 29.8173 cycles
L2C TOTAL     ACCESS:    7698464  HIT:    6654838  MISS:    1043626
L2C LOAD      ACCESS:    2283579  HIT:    2077046  MISS:     206533
L2C RFO       ACCESS:     103458  HIT:      63085  MISS:      40373
L2C PREFETCH  ACCESS:    5054562  HIT:    4259168  MISS:     795394
L2C WRITEBACK ACCESS:     256865  HIT:     255539  MISS:       1326
L2C PREFETCH  REQUESTED:    7716681  ISSUED:    7714717  USEFUL:      20111  USELESS:     774306
L2C AVERAGE MISS LATENCY: 48.2861 cycles
LLC TOTAL     ACCESS:    2530373  HIT:    2397266  MISS:     133107
LLC LOAD      ACCESS:     206322  HIT:     187215  MISS:      19107
LLC RFO       ACCESS:      40371  HIT:      31009  MISS:       9362
LLC PREFETCH  ACCESS:    2145688  HIT:    2041287  MISS:     104401
LLC WRITEBACK ACCESS:     137992  HIT:     137755  MISS:        237
LLC PREFETCH  REQUESTED:          0  ISSUED:          0  USEFUL:       9359  USELESS:      91785
LLC AVERAGE MISS LATENCY: 174.661 cycles
Major fault: 0 Minor fault: 6353
I-Shadow cache 408 bytes
Touched + WorthPF tables 98304 bytes 
MMA filter 174 bytes 
FNL filter 272 bytes 
TOTAL PREFETCHER STORAGE SIZE: 389974 bytes
CPU 0 L1I next line prefetcher final stats
CPU 0 L1D next line prefetcher final stats

DRAM Statistics
 CHANNEL 0
 RQ ROW_BUFFER_HIT:      24900  ROW_BUFFER_MISS:     107958
 DBUS_CONGESTED:      59601
 WQ ROW_BUFFER_HIT:       9252  ROW_BUFFER_MISS:      38283  FULL:          0

 AVG_CONGESTED_CYCLE: 5

CPU 0 Branch Prediction Accuracy: 99.4713% MPKI: 1.11484 Average ROB Occupancy at Mispredict: 120.212

Branch types
NOT_BRANCH: 39456616 78.9132%
BRANCH_DIRECT_JUMP: 445350 0.8907%
BRANCH_INDIRECT: 131149 0.262298%
BRANCH_CONDITIONAL: 8130196 16.2604%
BRANCH_DIRECT_CALL: 732485 1.46497%
BRANCH_INDIRECT_CALL: 172369 0.344738%
BRANCH_RETURN: 931558 1.86312%
BRANCH_OTHER: 0 0%

