Initialize SIGNATURE TABLE
ST_SET: 1
ST_WAY: 256
ST_TAG_BIT: 16
ST_TAG_MASK: ffff

Initialize PATTERN TABLE
PT_SET: 512
PT_WAY: 4
SIG_DELTA_BIT: 7
C_SIG_BIT: 4
C_DELTA_BIT: 4

Initialize PREFETCH FILTER
FILTER_SET: 1024

*** ChampSim Multicore Out-of-Order Simulator ***

Warmup Instructions: 50000000
Simulation Instructions: 50000000
Number of CPUs: 1
LLC sets: 2048
LLC ways: 16
Off-chip DRAM Size: 4096 MB Channels: 1 Width: 64-bit Data Rate: 3200 MT/s

CPU 0 runs /Users/brandon/Documents/CoursesWi22/CSE240C/Homework1/ChampSim/ipc1_public/server_004.champsimtrace.xz
CPU 0 L1I next line prefetcher
CPU 0 L1D next line prefetcher
Heartbeat CPU 0 instructions: 10000002 cycles: 3225272 heartbeat IPC: 3.10051 cumulative IPC: 3.10051 (Simulation time: 0 hr 1 min 35 sec) 
Heartbeat CPU 0 instructions: 20000002 cycles: 6558008 heartbeat IPC: 3.00054 cumulative IPC: 3.04971 (Simulation time: 0 hr 3 min 27 sec) 
Heartbeat CPU 0 instructions: 30000000 cycles: 11674885 heartbeat IPC: 1.95432 cumulative IPC: 2.56962 (Simulation time: 0 hr 5 min 44 sec) 
Heartbeat CPU 0 instructions: 40000003 cycles: 15420124 heartbeat IPC: 2.67006 cumulative IPC: 2.59401 (Simulation time: 0 hr 7 min 44 sec) 
Heartbeat CPU 0 instructions: 50000003 cycles: 18644109 heartbeat IPC: 3.10175 cumulative IPC: 2.68181 (Simulation time: 0 hr 9 min 37 sec) 

Warmup complete CPU 0 instructions: 50000003 cycles: 18644109 (Simulation time: 0 hr 9 min 37 sec) 

Heartbeat CPU 0 instructions: 60000002 cycles: 27207453 heartbeat IPC: 1.16777 cumulative IPC: 1.16777 (Simulation time: 0 hr 11 min 22 sec) 
Heartbeat CPU 0 instructions: 70000000 cycles: 35216872 heartbeat IPC: 1.24853 cumulative IPC: 1.2068 (Simulation time: 0 hr 13 min 6 sec) 
Heartbeat CPU 0 instructions: 80000001 cycles: 56121274 heartbeat IPC: 0.478368 cumulative IPC: 0.800487 (Simulation time: 0 hr 15 min 55 sec) 
Heartbeat CPU 0 instructions: 90000003 cycles: 70876659 heartbeat IPC: 0.677719 cumulative IPC: 0.765806 (Simulation time: 0 hr 17 min 30 sec) 
Heartbeat CPU 0 instructions: 100000003 cycles: 79337758 heartbeat IPC: 1.18188 cumulative IPC: 0.823809 (Simulation time: 0 hr 18 min 13 sec) 
Finished CPU 0 instructions: 50000000 cycles: 60693649 cumulative IPC: 0.823809 (Simulation time: 0 hr 18 min 13 sec) 

ChampSim completed all CPUs

Region of Interest Statistics

CPU 0 cumulative IPC: 0.823809 instructions: 50000000 cycles: 60693649
L1D TOTAL     ACCESS:   21619449  HIT:   17548403  MISS:    4071046
L1D LOAD      ACCESS:    8593471  HIT:    6574531  MISS:    2018940
L1D RFO       ACCESS:    4643124  HIT:    4536311  MISS:     106813
L1D PREFETCH  ACCESS:    8382854  HIT:    6437561  MISS:    1945293
L1D WRITEBACK ACCESS:          0  HIT:          0  MISS:          0
L1D PREFETCH  REQUESTED:    8628561  ISSUED:    8539382  USEFUL:     105704  USELESS:    1839585
L1D AVERAGE MISS LATENCY: 23.0525 cycles
L1I TOTAL     ACCESS:   13308371  HIT:   11744878  MISS:    1563493
L1I LOAD      ACCESS:   10708816  HIT:   10590865  MISS:     117951
L1I RFO       ACCESS:          0  HIT:          0  MISS:          0
L1I PREFETCH  ACCESS:    2599555  HIT:    1154013  MISS:    1445542
L1I WRITEBACK ACCESS:          0  HIT:          0  MISS:          0
L1I PREFETCH  REQUESTED:    2747513  ISSUED:    2747019  USEFUL:    1015238  USELESS:     430230
L1I AVERAGE MISS LATENCY: 33.488 cycles
L2C TOTAL     ACCESS:    7091985  HIT:    6024015  MISS:    1067970
L2C LOAD      ACCESS:    2043657  HIT:    1817954  MISS:     225703
L2C RFO       ACCESS:     105586  HIT:      57634  MISS:      47952
L2C PREFETCH  ACCESS:    4697713  HIT:    3904651  MISS:     793062
L2C WRITEBACK ACCESS:     245029  HIT:     243776  MISS:       1253
L2C PREFETCH  REQUESTED:    6014997  ISSUED:    6013656  USEFUL:      22918  USELESS:     770117
L2C AVERAGE MISS LATENCY: 60.6218 cycles
LLC TOTAL     ACCESS:    2337364  HIT:    2103109  MISS:     234255
LLC LOAD      ACCESS:     225274  HIT:     186009  MISS:      39265
LLC RFO       ACCESS:      47949  HIT:      33887  MISS:      14062
LLC PREFETCH  ACCESS:    1924002  HIT:    1743522  MISS:     180480
LLC WRITEBACK ACCESS:     140139  HIT:     139691  MISS:        448
LLC PREFETCH  REQUESTED:          0  ISSUED:          0  USEFUL:      15361  USELESS:     164685
LLC AVERAGE MISS LATENCY: 178.524 cycles
Major fault: 0 Minor fault: 7595
I-Shadow cache 408 bytes
Touched + WorthPF tables 98304 bytes 
MMA filter 174 bytes 
FNL filter 272 bytes 
TOTAL PREFETCHER STORAGE SIZE: 389974 bytes
CPU 0 L1I next line prefetcher final stats
CPU 0 L1D next line prefetcher final stats

DRAM Statistics
 CHANNEL 0
 RQ ROW_BUFFER_HIT:      49176  ROW_BUFFER_MISS:     184605
 DBUS_CONGESTED:     101616
 WQ ROW_BUFFER_HIT:      10954  ROW_BUFFER_MISS:      43240  FULL:          0

 AVG_CONGESTED_CYCLE: 5

CPU 0 Branch Prediction Accuracy: 98.1603% MPKI: 3.89124 Average ROB Occupancy at Mispredict: 68.0997

Branch types
NOT_BRANCH: 39423755 78.8475%
BRANCH_DIRECT_JUMP: 551642 1.10328%
BRANCH_INDIRECT: 139368 0.278736%
BRANCH_CONDITIONAL: 7920858 15.8417%
BRANCH_DIRECT_CALL: 776072 1.55214%
BRANCH_INDIRECT_CALL: 194644 0.389288%
BRANCH_RETURN: 993311 1.98662%
BRANCH_OTHER: 0 0%

