Initialize SIGNATURE TABLE
ST_SET: 1
ST_WAY: 256
ST_TAG_BIT: 16
ST_TAG_MASK: ffff

Initialize PATTERN TABLE
PT_SET: 512
PT_WAY: 4
SIG_DELTA_BIT: 7
C_SIG_BIT: 4
C_DELTA_BIT: 4

Initialize PREFETCH FILTER
FILTER_SET: 1024

*** ChampSim Multicore Out-of-Order Simulator ***

Warmup Instructions: 50000000
Simulation Instructions: 50000000
Number of CPUs: 1
LLC sets: 2048
LLC ways: 16
Off-chip DRAM Size: 4096 MB Channels: 1 Width: 64-bit Data Rate: 3200 MT/s

CPU 0 runs /Users/brandon/Documents/CoursesWi22/CSE240C/Homework1/ChampSim/ipc1_public/server_018.champsimtrace.xz
CPU 0 L1I next line prefetcher
CPU 0 L1D next line prefetcher
Heartbeat CPU 0 instructions: 10000003 cycles: 3616130 heartbeat IPC: 2.76539 cumulative IPC: 2.76539 (Simulation time: 0 hr 1 min 45 sec) 
Heartbeat CPU 0 instructions: 20000001 cycles: 7237090 heartbeat IPC: 2.7617 cumulative IPC: 2.76354 (Simulation time: 0 hr 3 min 46 sec) 
Heartbeat CPU 0 instructions: 30000003 cycles: 10712184 heartbeat IPC: 2.87762 cumulative IPC: 2.80055 (Simulation time: 0 hr 5 min 41 sec) 
Heartbeat CPU 0 instructions: 40000000 cycles: 14223895 heartbeat IPC: 2.84761 cumulative IPC: 2.81217 (Simulation time: 0 hr 7 min 40 sec) 
Heartbeat CPU 0 instructions: 50000003 cycles: 17840567 heartbeat IPC: 2.76497 cumulative IPC: 2.8026 (Simulation time: 0 hr 9 min 44 sec) 

Warmup complete CPU 0 instructions: 50000003 cycles: 17840567 (Simulation time: 0 hr 9 min 44 sec) 

Heartbeat CPU 0 instructions: 60000000 cycles: 35224850 heartbeat IPC: 0.575232 cumulative IPC: 0.575232 (Simulation time: 0 hr 12 min 29 sec) 
Heartbeat CPU 0 instructions: 70000001 cycles: 52625498 heartbeat IPC: 0.574691 cumulative IPC: 0.574962 (Simulation time: 0 hr 15 min 13 sec) 
Heartbeat CPU 0 instructions: 80000000 cycles: 69918381 heartbeat IPC: 0.578273 cumulative IPC: 0.576061 (Simulation time: 0 hr 17 min 32 sec) 
Heartbeat CPU 0 instructions: 90000002 cycles: 87248806 heartbeat IPC: 0.57702 cumulative IPC: 0.5763 (Simulation time: 0 hr 18 min 32 sec) 
Heartbeat CPU 0 instructions: 100000001 cycles: 104605551 heartbeat IPC: 0.576145 cumulative IPC: 0.576269 (Simulation time: 0 hr 19 min 13 sec) 
Finished CPU 0 instructions: 50000002 cycles: 86764986 cumulative IPC: 0.576269 (Simulation time: 0 hr 19 min 13 sec) 

ChampSim completed all CPUs

Region of Interest Statistics

CPU 0 cumulative IPC: 0.576269 instructions: 50000002 cycles: 86764986
L1D TOTAL     ACCESS:   18622742  HIT:   16405041  MISS:    2217701
L1D LOAD      ACCESS:    7045101  HIT:    6321829  MISS:     723272
L1D RFO       ACCESS:    5806714  HIT:    4854482  MISS:     952232
L1D PREFETCH  ACCESS:    5770927  HIT:    5228730  MISS:     542197
L1D WRITEBACK ACCESS:          0  HIT:          0  MISS:          0
L1D PREFETCH  REQUESTED:    7086408  ISSUED:    6882717  USEFUL:     202463  USELESS:     339823
L1D AVERAGE MISS LATENCY: 175.87 cycles
L1I TOTAL     ACCESS:   15036860  HIT:   12064929  MISS:    2971931
L1I LOAD      ACCESS:   10111750  HIT:   10081772  MISS:      29978
L1I RFO       ACCESS:          0  HIT:          0  MISS:          0
L1I PREFETCH  ACCESS:    4925110  HIT:    1983157  MISS:    2941953
L1I WRITEBACK ACCESS:          0  HIT:          0  MISS:          0
L1I PREFETCH  REQUESTED:    5140400  ISSUED:    5140398  USEFUL:    2551497  USELESS:     390404
L1I AVERAGE MISS LATENCY: 17.7631 cycles
L2C TOTAL     ACCESS:    7468400  HIT:    5605964  MISS:    1862436
L2C LOAD      ACCESS:     511651  HIT:     247934  MISS:     263717
L2C RFO       ACCESS:     951752  HIT:      21240  MISS:     930512
L2C PREFETCH  ACCESS:    4834975  HIT:    4170550  MISS:     664425
L2C WRITEBACK ACCESS:    1170022  HIT:    1166240  MISS:       3782
L2C PREFETCH  REQUESTED:    5033552  ISSUED:    5026520  USEFUL:      23161  USELESS:     642208
L2C AVERAGE MISS LATENCY: 213.912 cycles
LLC TOTAL     ACCESS:    4230998  HIT:    2763426  MISS:    1467572
LLC LOAD      ACCESS:     263628  HIT:     163753  MISS:      99875
LLC RFO       ACCESS:     930496  HIT:     133774  MISS:     796722
LLC PREFETCH  ACCESS:    1935059  HIT:    1366137  MISS:     568922
LLC WRITEBACK ACCESS:    1101815  HIT:    1099762  MISS:       2053
LLC PREFETCH  REQUESTED:          0  ISSUED:          0  USEFUL:      32560  USELESS:     536595
LLC AVERAGE MISS LATENCY: 281.074 cycles
Major fault: 0 Minor fault: 22442
I-Shadow cache 408 bytes
Touched + WorthPF tables 98304 bytes 
MMA filter 174 bytes 
FNL filter 272 bytes 
TOTAL PREFETCHER STORAGE SIZE: 389974 bytes
CPU 0 L1I next line prefetcher final stats
CPU 0 L1D next line prefetcher final stats

DRAM Statistics
 CHANNEL 0
 RQ ROW_BUFFER_HIT:     416731  ROW_BUFFER_MISS:    1048434
 DBUS_CONGESTED:    1473551
 WQ ROW_BUFFER_HIT:     250625  ROW_BUFFER_MISS:     650489  FULL:          0

 AVG_CONGESTED_CYCLE: 6

CPU 0 Branch Prediction Accuracy: 99.7114% MPKI: 0.47678 Average ROB Occupancy at Mispredict: 211.553

Branch types
NOT_BRANCH: 41740997 83.482%
BRANCH_DIRECT_JUMP: 458652 0.917304%
BRANCH_INDIRECT: 48282 0.096564%
BRANCH_CONDITIONAL: 5930880 11.8618%
BRANCH_DIRECT_CALL: 744230 1.48846%
BRANCH_INDIRECT_CALL: 166336 0.332672%
BRANCH_RETURN: 910589 1.82118%
BRANCH_OTHER: 0 0%

