Initialize SIGNATURE TABLE
ST_SET: 1
ST_WAY: 256
ST_TAG_BIT: 16
ST_TAG_MASK: ffff

Initialize PATTERN TABLE
PT_SET: 512
PT_WAY: 4
SIG_DELTA_BIT: 7
C_SIG_BIT: 4
C_DELTA_BIT: 4

Initialize PREFETCH FILTER
FILTER_SET: 1024

*** ChampSim Multicore Out-of-Order Simulator ***

Warmup Instructions: 50000000
Simulation Instructions: 50000000
Number of CPUs: 1
LLC sets: 2048
LLC ways: 16
Off-chip DRAM Size: 4096 MB Channels: 1 Width: 64-bit Data Rate: 3200 MT/s

CPU 0 runs /Users/brandon/Documents/CoursesWi22/CSE240C/Homework1/ChampSim/ipc1_public/server_031.champsimtrace.xz
CPU 0 L1I next line prefetcher
CPU 0 L1D next line prefetcher
Heartbeat CPU 0 instructions: 10000003 cycles: 3520281 heartbeat IPC: 2.84068 cumulative IPC: 2.84068 (Simulation time: 0 hr 1 min 54 sec) 
Heartbeat CPU 0 instructions: 20000002 cycles: 7039828 heartbeat IPC: 2.84127 cumulative IPC: 2.84098 (Simulation time: 0 hr 3 min 42 sec) 
Heartbeat CPU 0 instructions: 30000002 cycles: 10559514 heartbeat IPC: 2.84116 cumulative IPC: 2.84104 (Simulation time: 0 hr 5 min 30 sec) 
Heartbeat CPU 0 instructions: 40000003 cycles: 14075449 heartbeat IPC: 2.84419 cumulative IPC: 2.84183 (Simulation time: 0 hr 7 min 23 sec) 
Heartbeat CPU 0 instructions: 50000001 cycles: 17594334 heartbeat IPC: 2.84181 cumulative IPC: 2.84182 (Simulation time: 0 hr 9 min 20 sec) 

Warmup complete CPU 0 instructions: 50000001 cycles: 17594334 (Simulation time: 0 hr 9 min 20 sec) 

Heartbeat CPU 0 instructions: 60000001 cycles: 25140323 heartbeat IPC: 1.32521 cumulative IPC: 1.32521 (Simulation time: 0 hr 11 min 13 sec) 
Heartbeat CPU 0 instructions: 70000002 cycles: 32737058 heartbeat IPC: 1.31636 cumulative IPC: 1.32077 (Simulation time: 0 hr 13 min 1 sec) 
*** Reached end of trace for Core: 0 Repeating trace: /Users/brandon/Documents/CoursesWi22/CSE240C/Homework1/ChampSim/ipc1_public/server_031.champsimtrace.xz
Heartbeat CPU 0 instructions: 80000000 cycles: 40199824 heartbeat IPC: 1.33999 cumulative IPC: 1.32711 (Simulation time: 0 hr 14 min 32 sec) 
Heartbeat CPU 0 instructions: 90000001 cycles: 47704587 heartbeat IPC: 1.33249 cumulative IPC: 1.32845 (Simulation time: 0 hr 15 min 55 sec) 
Heartbeat CPU 0 instructions: 100000000 cycles: 55159994 heartbeat IPC: 1.34131 cumulative IPC: 1.331 (Simulation time: 0 hr 17 min 0 sec) 
Finished CPU 0 instructions: 50000000 cycles: 37565662 cumulative IPC: 1.331 (Simulation time: 0 hr 17 min 0 sec) 

ChampSim completed all CPUs

Region of Interest Statistics

CPU 0 cumulative IPC: 1.331 instructions: 50000000 cycles: 37565662
L1D TOTAL     ACCESS:   19494251  HIT:   17590007  MISS:    1904244
L1D LOAD      ACCESS:    6761889  HIT:    5888298  MISS:     873591
L1D RFO       ACCESS:    6313503  HIT:    6022045  MISS:     291458
L1D PREFETCH  ACCESS:    6418859  HIT:    5679664  MISS:     739195
L1D WRITEBACK ACCESS:          0  HIT:          0  MISS:          0
L1D PREFETCH  REQUESTED:    6826528  ISSUED:    6711102  USEFUL:     173487  USELESS:     565713
L1D AVERAGE MISS LATENCY: 23.8592 cycles
L1I TOTAL     ACCESS:   15224565  HIT:   11293931  MISS:    3930634
L1I LOAD      ACCESS:    9710281  HIT:    9624845  MISS:      85436
L1I RFO       ACCESS:          0  HIT:          0  MISS:          0
L1I PREFETCH  ACCESS:    5514284  HIT:    1669086  MISS:    3845198
L1I WRITEBACK ACCESS:          0  HIT:          0  MISS:          0
L1I PREFETCH  REQUESTED:    5771034  ISSUED:    5771028  USEFUL:    3014465  USELESS:     830748
L1I AVERAGE MISS LATENCY: 18.0749 cycles
L2C TOTAL     ACCESS:    8065285  HIT:    7287121  MISS:     778164
L2C LOAD      ACCESS:     852970  HIT:     703498  MISS:     149472
L2C RFO       ACCESS:     289450  HIT:     218807  MISS:      70643
L2C PREFETCH  ACCESS:    6305992  HIT:    5752520  MISS:     553472
L2C WRITEBACK ACCESS:     616873  HIT:     612296  MISS:       4577
L2C PREFETCH  REQUESTED:    8377102  ISSUED:    8348152  USEFUL:      10754  USELESS:     542042
L2C AVERAGE MISS LATENCY: 42.8405 cycles
LLC TOTAL     ACCESS:    2876028  HIT:    2790453  MISS:      85575
LLC LOAD      ACCESS:     149308  HIT:     130488  MISS:      18820
LLC RFO       ACCESS:      70643  HIT:      66486  MISS:       4157
LLC PREFETCH  ACCESS:    2524037  HIT:    2461996  MISS:      62041
LLC WRITEBACK ACCESS:     132040  HIT:     131483  MISS:        557
LLC PREFETCH  REQUESTED:          0  ISSUED:          0  USEFUL:       2857  USELESS:      58616
LLC AVERAGE MISS LATENCY: 160.806 cycles
Major fault: 0 Minor fault: 6041
I-Shadow cache 408 bytes
Touched + WorthPF tables 98304 bytes 
MMA filter 174 bytes 
FNL filter 272 bytes 
TOTAL PREFETCHER STORAGE SIZE: 389974 bytes
CPU 0 L1I next line prefetcher final stats
CPU 0 L1D next line prefetcher final stats

DRAM Statistics
 CHANNEL 0
 RQ ROW_BUFFER_HIT:      23986  ROW_BUFFER_MISS:      61023
 DBUS_CONGESTED:      36934
 WQ ROW_BUFFER_HIT:        815  ROW_BUFFER_MISS:       5094  FULL:          0

 AVG_CONGESTED_CYCLE: 5

CPU 0 Branch Prediction Accuracy: 99.6894% MPKI: 0.58048 Average ROB Occupancy at Mispredict: 144.727

Branch types
NOT_BRANCH: 40655657 81.3113%
BRANCH_DIRECT_JUMP: 546483 1.09297%
BRANCH_INDIRECT: 172433 0.344866%
BRANCH_CONDITIONAL: 6207594 12.4152%
BRANCH_DIRECT_CALL: 1018497 2.03699%
BRANCH_INDIRECT_CALL: 190373 0.380746%
BRANCH_RETURN: 1208855 2.41771%
BRANCH_OTHER: 0 0%

