Initialize SIGNATURE TABLE
ST_SET: 1
ST_WAY: 256
ST_TAG_BIT: 16
ST_TAG_MASK: ffff

Initialize PATTERN TABLE
PT_SET: 512
PT_WAY: 4
SIG_DELTA_BIT: 7
C_SIG_BIT: 4
C_DELTA_BIT: 4

Initialize PREFETCH FILTER
FILTER_SET: 1024

*** ChampSim Multicore Out-of-Order Simulator ***

Warmup Instructions: 50000000
Simulation Instructions: 50000000
Number of CPUs: 1
LLC sets: 2048
LLC ways: 16
Off-chip DRAM Size: 4096 MB Channels: 1 Width: 64-bit Data Rate: 3200 MT/s

CPU 0 runs /Users/brandon/Documents/CoursesWi22/CSE240C/Homework1/ChampSim/ipc1_public/server_033.champsimtrace.xz
CPU 0 L1I next line prefetcher
CPU 0 L1D next line prefetcher
Heartbeat CPU 0 instructions: 10000001 cycles: 3339884 heartbeat IPC: 2.99412 cumulative IPC: 2.99412 (Simulation time: 0 hr 1 min 50 sec) 
Heartbeat CPU 0 instructions: 20000002 cycles: 6678337 heartbeat IPC: 2.9954 cumulative IPC: 2.99476 (Simulation time: 0 hr 3 min 36 sec) 
Heartbeat CPU 0 instructions: 30000001 cycles: 10006579 heartbeat IPC: 3.00459 cumulative IPC: 2.99803 (Simulation time: 0 hr 5 min 19 sec) 
Heartbeat CPU 0 instructions: 40000000 cycles: 13343796 heartbeat IPC: 2.99651 cumulative IPC: 2.99765 (Simulation time: 0 hr 7 min 8 sec) 
Heartbeat CPU 0 instructions: 50000000 cycles: 16680119 heartbeat IPC: 2.99731 cumulative IPC: 2.99758 (Simulation time: 0 hr 9 min 2 sec) 

Warmup complete CPU 0 instructions: 50000004 cycles: 16680120 (Simulation time: 0 hr 9 min 2 sec) 

Heartbeat CPU 0 instructions: 60000000 cycles: 23236900 heartbeat IPC: 1.52514 cumulative IPC: 1.52514 (Simulation time: 0 hr 10 min 52 sec) 
Heartbeat CPU 0 instructions: 70000000 cycles: 29797282 heartbeat IPC: 1.5243 cumulative IPC: 1.52472 (Simulation time: 0 hr 12 min 38 sec) 
Heartbeat CPU 0 instructions: 80000000 cycles: 37121985 heartbeat IPC: 1.36524 cumulative IPC: 1.46758 (Simulation time: 0 hr 14 min 10 sec) 
Heartbeat CPU 0 instructions: 90000003 cycles: 43790742 heartbeat IPC: 1.49953 cumulative IPC: 1.47544 (Simulation time: 0 hr 15 min 32 sec) 
Heartbeat CPU 0 instructions: 100000000 cycles: 50409756 heartbeat IPC: 1.5108 cumulative IPC: 1.48238 (Simulation time: 0 hr 16 min 47 sec) 
Finished CPU 0 instructions: 50000000 cycles: 33729643 cumulative IPC: 1.48238 (Simulation time: 0 hr 16 min 47 sec) 

ChampSim completed all CPUs

Region of Interest Statistics

CPU 0 cumulative IPC: 1.48238 instructions: 50000000 cycles: 33729643
L1D TOTAL     ACCESS:   18229181  HIT:   16746901  MISS:    1482280
L1D LOAD      ACCESS:    6140099  HIT:    5456657  MISS:     683442
L1D RFO       ACCESS:    6165257  HIT:    6015770  MISS:     149487
L1D PREFETCH  ACCESS:    5923825  HIT:    5274474  MISS:     649351
L1D WRITEBACK ACCESS:          0  HIT:          0  MISS:          0
L1D PREFETCH  REQUESTED:    6181658  ISSUED:    6061429  USEFUL:     141113  USELESS:     508245
L1D AVERAGE MISS LATENCY: 23.9812 cycles
L1I TOTAL     ACCESS:   15347793  HIT:   11151357  MISS:    4196436
L1I LOAD      ACCESS:    9679638  HIT:    9622230  MISS:      57408
L1I RFO       ACCESS:          0  HIT:          0  MISS:          0
L1I PREFETCH  ACCESS:    5668155  HIT:    1529127  MISS:    4139028
L1I WRITEBACK ACCESS:          0  HIT:          0  MISS:          0
L1I PREFETCH  REQUESTED:    5877330  ISSUED:    5877323  USEFUL:    3345433  USELESS:     793558
L1I AVERAGE MISS LATENCY: 15.3404 cycles
L2C TOTAL     ACCESS:    7561514  HIT:    7262010  MISS:     299504
L2C LOAD      ACCESS:     692504  HIT:     573096  MISS:     119408
L2C RFO       ACCESS:     148131  HIT:     128523  MISS:      19608
L2C PREFETCH  ACCESS:    6354401  HIT:    6195289  MISS:     159112
L2C WRITEBACK ACCESS:     366478  HIT:     365102  MISS:       1376
L2C PREFETCH  REQUESTED:    7839840  ISSUED:    7811280  USEFUL:       9547  USELESS:     149253
L2C AVERAGE MISS LATENCY: 51.7952 cycles
LLC TOTAL     ACCESS:    2769865  HIT:    2694098  MISS:      75767
LLC LOAD      ACCESS:     119359  HIT:     103868  MISS:      15491
LLC RFO       ACCESS:      19586  HIT:      16883  MISS:       2703
LLC PREFETCH  ACCESS:    2528179  HIT:    2471098  MISS:      57081
LLC WRITEBACK ACCESS:     102741  HIT:     102249  MISS:        492
LLC PREFETCH  REQUESTED:          0  ISSUED:          0  USEFUL:       8493  USELESS:      46293
LLC AVERAGE MISS LATENCY: 172.315 cycles
Major fault: 0 Minor fault: 2482
I-Shadow cache 408 bytes
Touched + WorthPF tables 98304 bytes 
MMA filter 174 bytes 
FNL filter 272 bytes 
TOTAL PREFETCHER STORAGE SIZE: 389974 bytes
CPU 0 L1I next line prefetcher final stats
CPU 0 L1D next line prefetcher final stats

DRAM Statistics
 CHANNEL 0
 RQ ROW_BUFFER_HIT:      11985  ROW_BUFFER_MISS:      63278
 DBUS_CONGESTED:      34186
 WQ ROW_BUFFER_HIT:       4210  ROW_BUFFER_MISS:      20102  FULL:          0

 AVG_CONGESTED_CYCLE: 5

CPU 0 Branch Prediction Accuracy: 99.9029% MPKI: 0.19006 Average ROB Occupancy at Mispredict: 250.756

Branch types
NOT_BRANCH: 40217101 80.4342%
BRANCH_DIRECT_JUMP: 774599 1.5492%
BRANCH_INDIRECT: 108806 0.217612%
BRANCH_CONDITIONAL: 6379330 12.7587%
BRANCH_DIRECT_CALL: 1048808 2.09762%
BRANCH_INDIRECT_CALL: 211109 0.422218%
BRANCH_RETURN: 1259925 2.51985%
BRANCH_OTHER: 0 0%

