Initialize SIGNATURE TABLE
ST_SET: 1
ST_WAY: 256
ST_TAG_BIT: 16
ST_TAG_MASK: ffff

Initialize PATTERN TABLE
PT_SET: 512
PT_WAY: 4
SIG_DELTA_BIT: 7
C_SIG_BIT: 4
C_DELTA_BIT: 4

Initialize PREFETCH FILTER
FILTER_SET: 1024

*** ChampSim Multicore Out-of-Order Simulator ***

Warmup Instructions: 50000000
Simulation Instructions: 50000000
Number of CPUs: 1
LLC sets: 2048
LLC ways: 16
Off-chip DRAM Size: 4096 MB Channels: 1 Width: 64-bit Data Rate: 3200 MT/s

CPU 0 runs /Users/brandon/Documents/CoursesWi22/CSE240C/Homework1/ChampSim/ipc1_public/server_039.champsimtrace.xz
CPU 0 L1I next line prefetcher
CPU 0 L1D next line prefetcher
Heartbeat CPU 0 instructions: 10000003 cycles: 3451492 heartbeat IPC: 2.8973 cumulative IPC: 2.8973 (Simulation time: 0 hr 1 min 52 sec) 
Heartbeat CPU 0 instructions: 20000002 cycles: 6896047 heartbeat IPC: 2.90313 cumulative IPC: 2.90021 (Simulation time: 0 hr 3 min 40 sec) 
Heartbeat CPU 0 instructions: 30000001 cycles: 10342424 heartbeat IPC: 2.9016 cumulative IPC: 2.90067 (Simulation time: 0 hr 5 min 27 sec) 
Heartbeat CPU 0 instructions: 40000002 cycles: 13784198 heartbeat IPC: 2.90548 cumulative IPC: 2.90187 (Simulation time: 0 hr 7 min 18 sec) 
Heartbeat CPU 0 instructions: 50000001 cycles: 17225326 heartbeat IPC: 2.90602 cumulative IPC: 2.9027 (Simulation time: 0 hr 9 min 13 sec) 

Warmup complete CPU 0 instructions: 50000001 cycles: 17225326 (Simulation time: 0 hr 9 min 13 sec) 

Heartbeat CPU 0 instructions: 60000000 cycles: 22994601 heartbeat IPC: 1.73332 cumulative IPC: 1.73332 (Simulation time: 0 hr 10 min 56 sec) 
Heartbeat CPU 0 instructions: 70000000 cycles: 28761935 heartbeat IPC: 1.7339 cumulative IPC: 1.73361 (Simulation time: 0 hr 12 min 38 sec) 
Heartbeat CPU 0 instructions: 80000000 cycles: 34525320 heartbeat IPC: 1.73509 cumulative IPC: 1.7341 (Simulation time: 0 hr 14 min 4 sec) 
Heartbeat CPU 0 instructions: 90000001 cycles: 40295009 heartbeat IPC: 1.7332 cumulative IPC: 1.73388 (Simulation time: 0 hr 15 min 23 sec) 
Heartbeat CPU 0 instructions: 100000002 cycles: 46073527 heartbeat IPC: 1.73055 cumulative IPC: 1.73321 (Simulation time: 0 hr 16 min 37 sec) 
Finished CPU 0 instructions: 50000001 cycles: 28848201 cumulative IPC: 1.73321 (Simulation time: 0 hr 16 min 37 sec) 

ChampSim completed all CPUs

Region of Interest Statistics

CPU 0 cumulative IPC: 1.73321 instructions: 50000001 cycles: 28848201
L1D TOTAL     ACCESS:   19878735  HIT:   19384186  MISS:     494549
L1D LOAD      ACCESS:    6489060  HIT:    6267508  MISS:     221552
L1D RFO       ACCESS:    7089231  HIT:    7022392  MISS:      66839
L1D PREFETCH  ACCESS:    6300444  HIT:    6094286  MISS:     206158
L1D WRITEBACK ACCESS:          0  HIT:          0  MISS:          0
L1D PREFETCH  REQUESTED:    6505028  ISSUED:    6372333  USEFUL:      50099  USELESS:     156063
L1D AVERAGE MISS LATENCY: 15.0716 cycles
L1I TOTAL     ACCESS:   16135617  HIT:   11317361  MISS:    4818256
L1I LOAD      ACCESS:    9384355  HIT:    9356590  MISS:      27765
L1I RFO       ACCESS:          0  HIT:          0  MISS:          0
L1I PREFETCH  ACCESS:    6751262  HIT:    1960771  MISS:    4790491
L1I WRITEBACK ACCESS:          0  HIT:          0  MISS:          0
L1I PREFETCH  REQUESTED:    6917712  ISSUED:    6917712  USEFUL:    4177196  USELESS:     613330
L1I AVERAGE MISS LATENCY: 14.7274 cycles
L2C TOTAL     ACCESS:    7214541  HIT:    7214489  MISS:         52
L2C LOAD      ACCESS:     230191  HIT:     230188  MISS:          3
L2C RFO       ACCESS:      66751  HIT:      66751  MISS:          0
L2C PREFETCH  ACCESS:    6737634  HIT:    6737585  MISS:         49
L2C WRITEBACK ACCESS:     179965  HIT:     179965  MISS:          0
L2C PREFETCH  REQUESTED:    6264490  ISSUED:    6264130  USEFUL:          1  USELESS:          0
L2C AVERAGE MISS LATENCY: 44.8462 cycles
LLC TOTAL     ACCESS:    1054917  HIT:    1054466  MISS:        451
LLC LOAD      ACCESS:          3  HIT:          2  MISS:          1
LLC RFO       ACCESS:          0  HIT:          0  MISS:          0
LLC PREFETCH  ACCESS:    1054914  HIT:    1054464  MISS:        450
LLC WRITEBACK ACCESS:          0  HIT:          0  MISS:          0
LLC PREFETCH  REQUESTED:          0  ISSUED:          0  USEFUL:          2  USELESS:          0
LLC AVERAGE MISS LATENCY: 171.871 cycles
Major fault: 0 Minor fault: 356
I-Shadow cache 408 bytes
Touched + WorthPF tables 98304 bytes 
MMA filter 174 bytes 
FNL filter 272 bytes 
TOTAL PREFETCHER STORAGE SIZE: 389974 bytes
CPU 0 L1I next line prefetcher final stats
CPU 0 L1D next line prefetcher final stats

DRAM Statistics
 CHANNEL 0
 RQ ROW_BUFFER_HIT:         65  ROW_BUFFER_MISS:        386
 DBUS_CONGESTED:         56
 WQ ROW_BUFFER_HIT:          0  ROW_BUFFER_MISS:          0  FULL:          0

 AVG_CONGESTED_CYCLE: 5

CPU 0 Branch Prediction Accuracy: 99.9091% MPKI: 0.1547 Average ROB Occupancy at Mispredict: 305.806

Branch types
NOT_BRANCH: 41495033 82.9901%
BRANCH_DIRECT_JUMP: 491309 0.982618%
BRANCH_INDIRECT: 0 0%
BRANCH_CONDITIONAL: 5595263 11.1905%
BRANCH_DIRECT_CALL: 1028409 2.05682%
BRANCH_INDIRECT_CALL: 180756 0.361512%
BRANCH_RETURN: 1209170 2.41834%
BRANCH_OTHER: 0 0%

