Initialize SIGNATURE TABLE
ST_SET: 1
ST_WAY: 256
ST_TAG_BIT: 16
ST_TAG_MASK: ffff

Initialize PATTERN TABLE
PT_SET: 512
PT_WAY: 4
SIG_DELTA_BIT: 7
C_SIG_BIT: 4
C_DELTA_BIT: 4

Initialize PREFETCH FILTER
FILTER_SET: 1024

*** ChampSim Multicore Out-of-Order Simulator ***

Warmup Instructions: 50000000
Simulation Instructions: 50000000
Number of CPUs: 1
LLC sets: 2048
LLC ways: 16
Off-chip DRAM Size: 4096 MB Channels: 1 Width: 64-bit Data Rate: 3200 MT/s

CPU 0 runs /Users/brandon/Documents/CoursesWi22/CSE240C/Homework1/ChampSim/ipc1_public/server_003.champsimtrace.xz
CPU 0 L1I next line prefetcher
CPU 0 L1D next line prefetcher
Heartbeat CPU 0 instructions: 10000002 cycles: 3217849 heartbeat IPC: 3.10767 cumulative IPC: 3.10767 (Simulation time: 0 hr 1 min 34 sec) 
Heartbeat CPU 0 instructions: 20000000 cycles: 6532494 heartbeat IPC: 3.01691 cumulative IPC: 3.06162 (Simulation time: 0 hr 3 min 24 sec) 
Heartbeat CPU 0 instructions: 30000000 cycles: 9737221 heartbeat IPC: 3.12039 cumulative IPC: 3.08096 (Simulation time: 0 hr 5 min 14 sec) 
Heartbeat CPU 0 instructions: 40000001 cycles: 13149895 heartbeat IPC: 2.93025 cumulative IPC: 3.04185 (Simulation time: 0 hr 7 min 12 sec) 
Heartbeat CPU 0 instructions: 50000003 cycles: 16868544 heartbeat IPC: 2.68915 cumulative IPC: 2.9641 (Simulation time: 0 hr 9 min 11 sec) 

Warmup complete CPU 0 instructions: 50000003 cycles: 16868544 (Simulation time: 0 hr 9 min 11 sec) 

Heartbeat CPU 0 instructions: 60000000 cycles: 25610175 heartbeat IPC: 1.14395 cumulative IPC: 1.14395 (Simulation time: 0 hr 10 min 53 sec) 
Heartbeat CPU 0 instructions: 70000003 cycles: 34386764 heartbeat IPC: 1.1394 cumulative IPC: 1.14167 (Simulation time: 0 hr 12 min 24 sec) 
Heartbeat CPU 0 instructions: 80000000 cycles: 44113813 heartbeat IPC: 1.02806 cumulative IPC: 1.10111 (Simulation time: 0 hr 14 min 3 sec) 
Heartbeat CPU 0 instructions: 90000003 cycles: 54007866 heartbeat IPC: 1.01071 cumulative IPC: 1.07703 (Simulation time: 0 hr 15 min 41 sec) 
Heartbeat CPU 0 instructions: 100000001 cycles: 64379459 heartbeat IPC: 0.964172 cumulative IPC: 1.05239 (Simulation time: 0 hr 17 min 7 sec) 
Finished CPU 0 instructions: 50000002 cycles: 47510916 cumulative IPC: 1.05239 (Simulation time: 0 hr 17 min 7 sec) 

ChampSim completed all CPUs

Region of Interest Statistics

CPU 0 cumulative IPC: 1.05239 instructions: 50000002 cycles: 47510916
L1D TOTAL     ACCESS:   19962299  HIT:   18821465  MISS:    1140834
L1D LOAD      ACCESS:    7835893  HIT:    7305489  MISS:     530404
L1D RFO       ACCESS:    4551169  HIT:    4433808  MISS:     117361
L1D PREFETCH  ACCESS:    7575237  HIT:    7082168  MISS:     493069
L1D WRITEBACK ACCESS:          0  HIT:          0  MISS:          0
L1D PREFETCH  REQUESTED:    7895544  ISSUED:    7804230  USEFUL:     154851  USELESS:     338177
L1D AVERAGE MISS LATENCY: 54.8905 cycles
L1I TOTAL     ACCESS:   11537253  HIT:   10186352  MISS:    1350901
L1I LOAD      ACCESS:    9293223  HIT:    9179436  MISS:     113787
L1I RFO       ACCESS:          0  HIT:          0  MISS:          0
L1I PREFETCH  ACCESS:    2244030  HIT:    1006916  MISS:    1237114
L1I WRITEBACK ACCESS:          0  HIT:          0  MISS:          0
L1I PREFETCH  REQUESTED:    2368573  ISSUED:    2368428  USEFUL:     857504  USELESS:     379611
L1I AVERAGE MISS LATENCY: 37.267 cycles
L2C TOTAL     ACCESS:    3281082  HIT:    2296900  MISS:     984182
L2C LOAD      ACCESS:     565262  HIT:     328232  MISS:     237030
L2C RFO       ACCESS:     114699  HIT:      40883  MISS:      73816
L2C PREFETCH  ACCESS:    2316845  HIT:    1644576  MISS:     672269
L2C WRITEBACK ACCESS:     284276  HIT:     283209  MISS:       1067
L2C PREFETCH  REQUESTED:    2533203  ISSUED:    2531843  USEFUL:      27345  USELESS:     642529
L2C AVERAGE MISS LATENCY: 82.9064 cycles
LLC TOTAL     ACCESS:    1816213  HIT:    1464036  MISS:     352177
LLC LOAD      ACCESS:     236871  HIT:     176375  MISS:      60496
LLC RFO       ACCESS:      73808  HIT:      32174  MISS:      41634
LLC PREFETCH  ACCESS:    1340864  HIT:    1092077  MISS:     248787
LLC WRITEBACK ACCESS:     164670  HIT:     163410  MISS:       1260
LLC PREFETCH  REQUESTED:          0  ISSUED:          0  USEFUL:      25523  USELESS:     212812
LLC AVERAGE MISS LATENCY: 197.383 cycles
Major fault: 0 Minor fault: 7772
I-Shadow cache 408 bytes
Touched + WorthPF tables 98304 bytes 
MMA filter 174 bytes 
FNL filter 272 bytes 
TOTAL PREFETCHER STORAGE SIZE: 389974 bytes
CPU 0 L1I next line prefetcher final stats
CPU 0 L1D next line prefetcher final stats

DRAM Statistics
 CHANNEL 0
 RQ ROW_BUFFER_HIT:      80356  ROW_BUFFER_MISS:     270504
 DBUS_CONGESTED:     183044
 WQ ROW_BUFFER_HIT:      21445  ROW_BUFFER_MISS:      80227  FULL:          0

 AVG_CONGESTED_CYCLE: 5

CPU 0 Branch Prediction Accuracy: 95.439% MPKI: 9.02702 Average ROB Occupancy at Mispredict: 69.2825

Branch types
NOT_BRANCH: 40104088 80.2082%
BRANCH_DIRECT_JUMP: 497928 0.995856%
BRANCH_INDIRECT: 130587 0.261174%
BRANCH_CONDITIONAL: 7219018 14.438%
BRANCH_DIRECT_CALL: 625807 1.25161%
BRANCH_INDIRECT_CALL: 389787 0.779574%
BRANCH_RETURN: 1032747 2.06549%
BRANCH_OTHER: 0 0%

