Initialize SIGNATURE TABLE
ST_SET: 1
ST_WAY: 256
ST_TAG_BIT: 16
ST_TAG_MASK: ffff

Initialize PATTERN TABLE
PT_SET: 512
PT_WAY: 4
SIG_DELTA_BIT: 7
C_SIG_BIT: 4
C_DELTA_BIT: 4

Initialize PREFETCH FILTER
FILTER_SET: 1024

*** ChampSim Multicore Out-of-Order Simulator ***

Warmup Instructions: 50000000
Simulation Instructions: 50000000
Number of CPUs: 1
LLC sets: 2048
LLC ways: 16
Off-chip DRAM Size: 4096 MB Channels: 1 Width: 64-bit Data Rate: 3200 MT/s

CPU 0 runs /Users/brandon/Documents/CoursesWi22/CSE240C/Homework1/ChampSim/ipc1_public/server_019.champsimtrace.xz
CPU 0 L1I next line prefetcher
CPU 0 L1D next line prefetcher
Heartbeat CPU 0 instructions: 10000002 cycles: 3622512 heartbeat IPC: 2.76052 cumulative IPC: 2.76052 (Simulation time: 0 hr 1 min 44 sec) 
Heartbeat CPU 0 instructions: 20000003 cycles: 7246303 heartbeat IPC: 2.75954 cumulative IPC: 2.76003 (Simulation time: 0 hr 3 min 46 sec) 
Heartbeat CPU 0 instructions: 30000002 cycles: 10869061 heartbeat IPC: 2.76033 cumulative IPC: 2.76013 (Simulation time: 0 hr 5 min 49 sec) 
Heartbeat CPU 0 instructions: 40000002 cycles: 14503620 heartbeat IPC: 2.75137 cumulative IPC: 2.75793 (Simulation time: 0 hr 7 min 52 sec) 
Heartbeat CPU 0 instructions: 50000001 cycles: 18126647 heartbeat IPC: 2.76012 cumulative IPC: 2.75837 (Simulation time: 0 hr 9 min 56 sec) 

Warmup complete CPU 0 instructions: 50000001 cycles: 18126647 (Simulation time: 0 hr 9 min 56 sec) 

Heartbeat CPU 0 instructions: 60000000 cycles: 37752666 heartbeat IPC: 0.509528 cumulative IPC: 0.509528 (Simulation time: 0 hr 12 min 48 sec) 
Heartbeat CPU 0 instructions: 70000002 cycles: 61141259 heartbeat IPC: 0.427559 cumulative IPC: 0.464958 (Simulation time: 0 hr 15 min 28 sec) 
Heartbeat CPU 0 instructions: 80000001 cycles: 81508189 heartbeat IPC: 0.490992 cumulative IPC: 0.473324 (Simulation time: 0 hr 17 min 39 sec) 
Heartbeat CPU 0 instructions: 90000002 cycles: 98825310 heartbeat IPC: 0.577463 cumulative IPC: 0.495671 (Simulation time: 0 hr 18 min 35 sec) 
Heartbeat CPU 0 instructions: 100000002 cycles: 116169549 heartbeat IPC: 0.57656 cumulative IPC: 0.509981 (Simulation time: 0 hr 19 min 16 sec) 
Finished CPU 0 instructions: 50000001 cycles: 98042902 cumulative IPC: 0.509981 (Simulation time: 0 hr 19 min 16 sec) 

ChampSim completed all CPUs

Region of Interest Statistics

CPU 0 cumulative IPC: 0.509981 instructions: 50000001 cycles: 98042902
L1D TOTAL     ACCESS:   18305375  HIT:   16081653  MISS:    2223722
L1D LOAD      ACCESS:    6977188  HIT:    6226352  MISS:     750836
L1D RFO       ACCESS:    5509183  HIT:    4607212  MISS:     901971
L1D PREFETCH  ACCESS:    5819004  HIT:    5248089  MISS:     570915
L1D WRITEBACK ACCESS:          0  HIT:          0  MISS:          0
L1D PREFETCH  REQUESTED:    7014358  ISSUED:    6828441  USEFUL:     201641  USELESS:     369183
L1D AVERAGE MISS LATENCY: 186.146 cycles
L1I TOTAL     ACCESS:   14183971  HIT:   11528562  MISS:    2655409
L1I LOAD      ACCESS:    9850265  HIT:    9822192  MISS:      28073
L1I RFO       ACCESS:          0  HIT:          0  MISS:          0
L1I PREFETCH  ACCESS:    4333706  HIT:    1706370  MISS:    2627336
L1I WRITEBACK ACCESS:          0  HIT:          0  MISS:          0
L1I PREFETCH  REQUESTED:    4524049  ISSUED:    4524038  USEFUL:    2284783  USELESS:     342541
L1I AVERAGE MISS LATENCY: 18.5673 cycles
L2C TOTAL     ACCESS:    7051644  HIT:    5157979  MISS:    1893665
L2C LOAD      ACCESS:     565296  HIT:     231236  MISS:     334060
L2C RFO       ACCESS:     901528  HIT:      18273  MISS:     883255
L2C PREFETCH  ACCESS:    4410160  HIT:    3735469  MISS:     674691
L2C WRITEBACK ACCESS:    1174660  HIT:    1173001  MISS:       1659
L2C PREFETCH  REQUESTED:    4787859  ISSUED:    4781120  USEFUL:      23005  USELESS:     650310
L2C AVERAGE MISS LATENCY: 221.6 cycles
LLC TOTAL     ACCESS:    4301862  HIT:    2689538  MISS:    1612324
LLC LOAD      ACCESS:     333943  HIT:     168679  MISS:     165264
LLC RFO       ACCESS:     883207  HIT:     114489  MISS:     768718
LLC PREFETCH  ACCESS:    1974076  HIT:    1297604  MISS:     676472
LLC WRITEBACK ACCESS:    1110636  HIT:    1108766  MISS:       1870
LLC PREFETCH  REQUESTED:          0  ISSUED:          0  USEFUL:      52652  USELESS:     622725
LLC AVERAGE MISS LATENCY: 276.797 cycles
Major fault: 0 Minor fault: 25691
I-Shadow cache 408 bytes
Touched + WorthPF tables 98304 bytes 
MMA filter 174 bytes 
FNL filter 272 bytes 
TOTAL PREFETCHER STORAGE SIZE: 389974 bytes
CPU 0 L1I next line prefetcher final stats
CPU 0 L1D next line prefetcher final stats

DRAM Statistics
 CHANNEL 0
 RQ ROW_BUFFER_HIT:     400215  ROW_BUFFER_MISS:    1210036
 DBUS_CONGESTED:    1598828
 WQ ROW_BUFFER_HIT:     255058  ROW_BUFFER_MISS:     682205  FULL:          0

 AVG_CONGESTED_CYCLE: 6

CPU 0 Branch Prediction Accuracy: 99.2186% MPKI: 1.32192 Average ROB Occupancy at Mispredict: 179.125

Branch types
NOT_BRANCH: 41540785 83.0816%
BRANCH_DIRECT_JUMP: 462384 0.924768%
BRANCH_INDIRECT: 45460 0.09092%
BRANCH_CONDITIONAL: 6209281 12.4186%
BRANCH_DIRECT_CALL: 666241 1.33248%
BRANCH_INDIRECT_CALL: 204728 0.409456%
BRANCH_RETURN: 870978 1.74196%
BRANCH_OTHER: 0 0%

