Initialize SIGNATURE TABLE
ST_SET: 1
ST_WAY: 256
ST_TAG_BIT: 16
ST_TAG_MASK: ffff

Initialize PATTERN TABLE
PT_SET: 512
PT_WAY: 4
SIG_DELTA_BIT: 7
C_SIG_BIT: 4
C_DELTA_BIT: 4

Initialize PREFETCH FILTER
FILTER_SET: 1024

*** ChampSim Multicore Out-of-Order Simulator ***

Warmup Instructions: 50000000
Simulation Instructions: 50000000
Number of CPUs: 1
LLC sets: 2048
LLC ways: 16
Off-chip DRAM Size: 4096 MB Channels: 1 Width: 64-bit Data Rate: 3200 MT/s

CPU 0 runs /Users/brandon/Documents/CoursesWi22/CSE240C/Homework1/ChampSim/ipc1_public/spec_gobmk_001.champsimtrace.xz
CPU 0 L1I next line prefetcher
CPU 0 L1D next line prefetcher
Heartbeat CPU 0 instructions: 10000003 cycles: 3507088 heartbeat IPC: 2.85137 cumulative IPC: 2.85137 (Simulation time: 0 hr 1 min 32 sec) 
Heartbeat CPU 0 instructions: 20000002 cycles: 6987560 heartbeat IPC: 2.87317 cumulative IPC: 2.86223 (Simulation time: 0 hr 3 min 1 sec) 
Heartbeat CPU 0 instructions: 30000002 cycles: 10506590 heartbeat IPC: 2.84169 cumulative IPC: 2.85535 (Simulation time: 0 hr 4 min 28 sec) 
Heartbeat CPU 0 instructions: 40000001 cycles: 14025648 heartbeat IPC: 2.84167 cumulative IPC: 2.85192 (Simulation time: 0 hr 5 min 56 sec) 
Heartbeat CPU 0 instructions: 50000001 cycles: 17565876 heartbeat IPC: 2.82468 cumulative IPC: 2.84643 (Simulation time: 0 hr 7 min 28 sec) 

Warmup complete CPU 0 instructions: 50000001 cycles: 17565876 (Simulation time: 0 hr 7 min 28 sec) 

Heartbeat CPU 0 instructions: 60000000 cycles: 26397509 heartbeat IPC: 1.13229 cumulative IPC: 1.13229 (Simulation time: 0 hr 8 min 39 sec) 
Heartbeat CPU 0 instructions: 70000002 cycles: 34877731 heartbeat IPC: 1.17921 cumulative IPC: 1.15528 (Simulation time: 0 hr 9 min 46 sec) 
Heartbeat CPU 0 instructions: 80000003 cycles: 43763710 heartbeat IPC: 1.12537 cumulative IPC: 1.14513 (Simulation time: 0 hr 10 min 50 sec) 
Heartbeat CPU 0 instructions: 90000001 cycles: 52307117 heartbeat IPC: 1.17049 cumulative IPC: 1.15137 (Simulation time: 0 hr 11 min 55 sec) 
Heartbeat CPU 0 instructions: 100000003 cycles: 61171544 heartbeat IPC: 1.1281 cumulative IPC: 1.14664 (Simulation time: 0 hr 12 min 56 sec) 
Finished CPU 0 instructions: 50000002 cycles: 43605668 cumulative IPC: 1.14664 (Simulation time: 0 hr 12 min 56 sec) 

ChampSim completed all CPUs

Region of Interest Statistics

CPU 0 cumulative IPC: 1.14664 instructions: 50000002 cycles: 43605668
L1D TOTAL     ACCESS:   18014196  HIT:   17634640  MISS:     379556
L1D LOAD      ACCESS:    7225522  HIT:    7090481  MISS:     135041
L1D RFO       ACCESS:    3702060  HIT:    3597540  MISS:     104520
L1D PREFETCH  ACCESS:    7086614  HIT:    6946619  MISS:     139995
L1D WRITEBACK ACCESS:          0  HIT:          0  MISS:          0
L1D PREFETCH  REQUESTED:    7230874  ISSUED:    7148049  USEFUL:      45285  USELESS:      94715
L1D AVERAGE MISS LATENCY: 32.8407 cycles
L1I TOTAL     ACCESS:   12588973  HIT:   11203688  MISS:    1385285
L1I LOAD      ACCESS:    8962947  HIT:    8842969  MISS:     119978
L1I RFO       ACCESS:          0  HIT:          0  MISS:          0
L1I PREFETCH  ACCESS:    3626026  HIT:    2360719  MISS:    1265307
L1I WRITEBACK ACCESS:          0  HIT:          0  MISS:          0
L1I PREFETCH  REQUESTED:    3746362  ISSUED:    3746290  USEFUL:     650619  USELESS:     614675
L1I AVERAGE MISS LATENCY: 15.1045 cycles
L2C TOTAL     ACCESS:    2644064  HIT:    2518228  MISS:     125836
L2C LOAD      ACCESS:     212181  HIT:     177097  MISS:      35084
L2C RFO       ACCESS:     104176  HIT:      70530  MISS:      33646
L2C PREFETCH  ACCESS:    2188417  HIT:    2131327  MISS:      57090
L2C WRITEBACK ACCESS:     139290  HIT:     139274  MISS:         16
L2C PREFETCH  REQUESTED:    2121098  ISSUED:    2120780  USEFUL:       5060  USELESS:      52510
L2C AVERAGE MISS LATENCY: 62.7164 cycles
LLC TOTAL     ACCESS:     361660  HIT:     323722  MISS:      37938
LLC LOAD      ACCESS:      35082  HIT:      26991  MISS:       8091
LLC RFO       ACCESS:      33646  HIT:      28089  MISS:       5557
LLC PREFETCH  ACCESS:     248613  HIT:     224628  MISS:      23985
LLC WRITEBACK ACCESS:      44319  HIT:      44014  MISS:        305
LLC PREFETCH  REQUESTED:          0  ISSUED:          0  USEFUL:       1569  USELESS:      20551
LLC AVERAGE MISS LATENCY: 178.909 cycles
Major fault: 0 Minor fault: 4156
I-Shadow cache 408 bytes
Touched + WorthPF tables 98304 bytes 
MMA filter 174 bytes 
FNL filter 272 bytes 
TOTAL PREFETCHER STORAGE SIZE: 389974 bytes
CPU 0 L1I next line prefetcher final stats
CPU 0 L1D next line prefetcher final stats

DRAM Statistics
 CHANNEL 0
 RQ ROW_BUFFER_HIT:       3893  ROW_BUFFER_MISS:      33735
 DBUS_CONGESTED:      23604
 WQ ROW_BUFFER_HIT:       1296  ROW_BUFFER_MISS:      14633  FULL:          0

 AVG_CONGESTED_CYCLE: 4

CPU 0 Branch Prediction Accuracy: 94.7729% MPKI: 9.72684 Average ROB Occupancy at Mispredict: 53.4636

Branch types
NOT_BRANCH: 40695383 81.3908%
BRANCH_DIRECT_JUMP: 422107 0.844214%
BRANCH_INDIRECT: 65 0.00013%
BRANCH_CONDITIONAL: 8105005 16.21%
BRANCH_DIRECT_CALL: 374913 0.749826%
BRANCH_INDIRECT_CALL: 13657 0.027314%
BRANCH_RETURN: 388556 0.777112%
BRANCH_OTHER: 0 0%

