Initialize SIGNATURE TABLE
ST_SET: 1
ST_WAY: 256
ST_TAG_BIT: 16
ST_TAG_MASK: ffff

Initialize PATTERN TABLE
PT_SET: 512
PT_WAY: 4
SIG_DELTA_BIT: 7
C_SIG_BIT: 4
C_DELTA_BIT: 4

Initialize PREFETCH FILTER
FILTER_SET: 1024

*** ChampSim Multicore Out-of-Order Simulator ***

Warmup Instructions: 50000000
Simulation Instructions: 50000000
Number of CPUs: 1
LLC sets: 2048
LLC ways: 16
Off-chip DRAM Size: 4096 MB Channels: 1 Width: 64-bit Data Rate: 3200 MT/s

CPU 0 runs /Users/brandon/Documents/CoursesWi22/CSE240C/Homework1/ChampSim/ipc1_public/spec_gcc_003.champsimtrace.xz
CPU 0 L1I next line prefetcher
CPU 0 L1D next line prefetcher
Heartbeat CPU 0 instructions: 10000001 cycles: 3479816 heartbeat IPC: 2.87372 cumulative IPC: 2.87372 (Simulation time: 0 hr 1 min 21 sec) 
Heartbeat CPU 0 instructions: 20000000 cycles: 6943679 heartbeat IPC: 2.88695 cumulative IPC: 2.88032 (Simulation time: 0 hr 2 min 36 sec) 
Heartbeat CPU 0 instructions: 30000002 cycles: 10386562 heartbeat IPC: 2.90454 cumulative IPC: 2.88835 (Simulation time: 0 hr 3 min 48 sec) 
Heartbeat CPU 0 instructions: 40000000 cycles: 13851712 heartbeat IPC: 2.88588 cumulative IPC: 2.88773 (Simulation time: 0 hr 5 min 0 sec) 
Heartbeat CPU 0 instructions: 50000001 cycles: 17160741 heartbeat IPC: 3.02203 cumulative IPC: 2.91363 (Simulation time: 0 hr 6 min 12 sec) 

Warmup complete CPU 0 instructions: 50000001 cycles: 17160741 (Simulation time: 0 hr 6 min 12 sec) 

Heartbeat CPU 0 instructions: 60000000 cycles: 56565330 heartbeat IPC: 0.253778 cumulative IPC: 0.253778 (Simulation time: 0 hr 9 min 44 sec) 
Heartbeat CPU 0 instructions: 70000000 cycles: 98202861 heartbeat IPC: 0.240168 cumulative IPC: 0.246785 (Simulation time: 0 hr 13 min 2 sec) 
Heartbeat CPU 0 instructions: 80000003 cycles: 140979125 heartbeat IPC: 0.233775 cumulative IPC: 0.24229 (Simulation time: 0 hr 15 min 43 sec) 
Heartbeat CPU 0 instructions: 90000002 cycles: 177076222 heartbeat IPC: 0.277031 cumulative IPC: 0.250132 (Simulation time: 0 hr 17 min 9 sec) 
Heartbeat CPU 0 instructions: 100000001 cycles: 222647235 heartbeat IPC: 0.219438 cumulative IPC: 0.243325 (Simulation time: 0 hr 17 min 44 sec) 
Finished CPU 0 instructions: 50000000 cycles: 205486494 cumulative IPC: 0.243325 (Simulation time: 0 hr 17 min 44 sec) 

ChampSim completed all CPUs

Region of Interest Statistics

CPU 0 cumulative IPC: 0.243325 instructions: 50000000 cycles: 205486494
L1D TOTAL     ACCESS:   16836470  HIT:   11112235  MISS:    5724235
L1D LOAD      ACCESS:    4559673  HIT:    4176961  MISS:     382712
L1D RFO       ACCESS:    8204955  HIT:    3153390  MISS:    5051565
L1D PREFETCH  ACCESS:    4071842  HIT:    3781884  MISS:     289958
L1D WRITEBACK ACCESS:          0  HIT:          0  MISS:          0
L1D PREFETCH  REQUESTED:    4577046  ISSUED:    4517621  USEFUL:     152589  USELESS:     137549
L1D AVERAGE MISS LATENCY: 490.217 cycles
L1I TOTAL     ACCESS:   13723208  HIT:   12347900  MISS:    1375308
L1I LOAD      ACCESS:   11278244  HIT:   11177616  MISS:     100628
L1I RFO       ACCESS:          0  HIT:          0  MISS:          0
L1I PREFETCH  ACCESS:    2444964  HIT:    1170284  MISS:    1274680
L1I WRITEBACK ACCESS:          0  HIT:          0  MISS:          0
L1I PREFETCH  REQUESTED:    2619153  ISSUED:    2609760  USEFUL:     773296  USELESS:     501280
L1I AVERAGE MISS LATENCY: 51.9488 cycles
L2C TOTAL     ACCESS:   12573852  HIT:    6489777  MISS:    6084075
L2C LOAD      ACCESS:     256243  HIT:      82184  MISS:     174059
L2C RFO       ACCESS:    5049770  HIT:       6453  MISS:    5043317
L2C PREFETCH  ACCESS:    2109990  HIT:    1243476  MISS:     866514
L2C WRITEBACK ACCESS:    5157849  HIT:    5157664  MISS:        185
L2C PREFETCH  REQUESTED:    2517642  ISSUED:    2517030  USEFUL:      32870  USELESS:     830839
L2C AVERAGE MISS LATENCY: 459.646 cycles
LLC TOTAL     ACCESS:   12054466  HIT:    7442876  MISS:    4611590
LLC LOAD      ACCESS:     174016  HIT:     130929  MISS:      43087
LLC RFO       ACCESS:    5043317  HIT:     746353  MISS:    4296964
LLC PREFETCH  ACCESS:    1703470  HIT:    1431931  MISS:     271539
LLC WRITEBACK ACCESS:    5133663  HIT:    5133663  MISS:          0
LLC PREFETCH  REQUESTED:          0  ISSUED:          0  USEFUL:      12172  USELESS:     259398
LLC AVERAGE MISS LATENCY: 574.792 cycles
Major fault: 0 Minor fault: 2817
I-Shadow cache 408 bytes
Touched + WorthPF tables 98304 bytes 
MMA filter 174 bytes 
FNL filter 272 bytes 
TOTAL PREFETCHER STORAGE SIZE: 389974 bytes
CPU 0 L1I next line prefetcher final stats
CPU 0 L1D next line prefetcher final stats

DRAM Statistics
 CHANNEL 0
 RQ ROW_BUFFER_HIT:    1391406  ROW_BUFFER_MISS:    3218490
 DBUS_CONGESTED:    7948129
 WQ ROW_BUFFER_HIT:    1148113  ROW_BUFFER_MISS:    3177809  FULL:       1381

 AVG_CONGESTED_CYCLE: 6

CPU 0 Branch Prediction Accuracy: 99.665% MPKI: 0.78342 Average ROB Occupancy at Mispredict: 121.186

Branch types
NOT_BRANCH: 38305856 76.6117%
BRANCH_DIRECT_JUMP: 384281 0.768562%
BRANCH_INDIRECT: 71949 0.143898%
BRANCH_CONDITIONAL: 9879825 19.7597%
BRANCH_DIRECT_CALL: 650586 1.30117%
BRANCH_INDIRECT_CALL: 28456 0.056912%
BRANCH_RETURN: 679046 1.35809%
BRANCH_OTHER: 0 0%

