Initialize SIGNATURE TABLE
ST_SET: 1
ST_WAY: 256
ST_TAG_BIT: 16
ST_TAG_MASK: ffff

Initialize PATTERN TABLE
PT_SET: 512
PT_WAY: 4
SIG_DELTA_BIT: 7
C_SIG_BIT: 4
C_DELTA_BIT: 4

Initialize PREFETCH FILTER
FILTER_SET: 1024

*** ChampSim Multicore Out-of-Order Simulator ***

Warmup Instructions: 50000000
Simulation Instructions: 50000000
Number of CPUs: 1
LLC sets: 2048
LLC ways: 16
Off-chip DRAM Size: 4096 MB Channels: 1 Width: 64-bit Data Rate: 3200 MT/s

CPU 0 runs /Users/brandon/Documents/CoursesWi22/CSE240C/Homework1/ChampSim/ipc1_public/spec_perlbench_001.champsimtrace.xz
CPU 0 L1I next line prefetcher
CPU 0 L1D next line prefetcher
Heartbeat CPU 0 instructions: 10000000 cycles: 3275838 heartbeat IPC: 3.05265 cumulative IPC: 3.05265 (Simulation time: 0 hr 1 min 39 sec) 
Heartbeat CPU 0 instructions: 20000000 cycles: 6540439 heartbeat IPC: 3.06316 cumulative IPC: 3.0579 (Simulation time: 0 hr 3 min 19 sec) 
Heartbeat CPU 0 instructions: 30000002 cycles: 9856984 heartbeat IPC: 3.01519 cumulative IPC: 3.04353 (Simulation time: 0 hr 4 min 59 sec) 
Heartbeat CPU 0 instructions: 40000002 cycles: 13112449 heartbeat IPC: 3.07176 cumulative IPC: 3.05054 (Simulation time: 0 hr 6 min 34 sec) 
Heartbeat CPU 0 instructions: 50000001 cycles: 16386316 heartbeat IPC: 3.05449 cumulative IPC: 3.05133 (Simulation time: 0 hr 8 min 11 sec) 

Warmup complete CPU 0 instructions: 50000001 cycles: 16386316 (Simulation time: 0 hr 8 min 11 sec) 

Heartbeat CPU 0 instructions: 60000001 cycles: 24663011 heartbeat IPC: 1.20821 cumulative IPC: 1.20821 (Simulation time: 0 hr 9 min 41 sec) 
Heartbeat CPU 0 instructions: 70000003 cycles: 32763389 heartbeat IPC: 1.23451 cumulative IPC: 1.22122 (Simulation time: 0 hr 11 min 11 sec) 
Heartbeat CPU 0 instructions: 80000000 cycles: 41143469 heartbeat IPC: 1.19331 cumulative IPC: 1.21177 (Simulation time: 0 hr 12 min 35 sec) 
Heartbeat CPU 0 instructions: 90000000 cycles: 46865349 heartbeat IPC: 1.74768 cumulative IPC: 1.31238 (Simulation time: 0 hr 13 min 31 sec) 
Heartbeat CPU 0 instructions: 100000002 cycles: 52729167 heartbeat IPC: 1.70537 cumulative IPC: 1.37579 (Simulation time: 0 hr 14 min 24 sec) 
Finished CPU 0 instructions: 50000001 cycles: 36342851 cumulative IPC: 1.37579 (Simulation time: 0 hr 14 min 24 sec) 

ChampSim completed all CPUs

Region of Interest Statistics

CPU 0 cumulative IPC: 1.37579 instructions: 50000001 cycles: 36342851
L1D TOTAL     ACCESS:   20689726  HIT:   20274632  MISS:     415094
L1D LOAD      ACCESS:    7174484  HIT:    6960750  MISS:     213734
L1D RFO       ACCESS:    6542290  HIT:    6523773  MISS:      18517
L1D PREFETCH  ACCESS:    6972952  HIT:    6790109  MISS:     182843
L1D WRITEBACK ACCESS:          0  HIT:          0  MISS:          0
L1D PREFETCH  REQUESTED:    7190226  ISSUED:    7073749  USEFUL:      55159  USELESS:     127679
L1D AVERAGE MISS LATENCY: 57.8255 cycles
L1I TOTAL     ACCESS:   11027839  HIT:   10272889  MISS:     754950
L1I LOAD      ACCESS:    9153475  HIT:    9081677  MISS:      71798
L1I RFO       ACCESS:          0  HIT:          0  MISS:          0
L1I PREFETCH  ACCESS:    1874364  HIT:    1191212  MISS:     683152
L1I WRITEBACK ACCESS:          0  HIT:          0  MISS:          0
L1I PREFETCH  REQUESTED:    1934295  ISSUED:    1934235  USEFUL:     405459  USELESS:     277708
L1I AVERAGE MISS LATENCY: 17.1903 cycles
L2C TOTAL     ACCESS:    1610840  HIT:    1440519  MISS:     170321
L2C LOAD      ACCESS:     268572  HIT:     187688  MISS:      80884
L2C RFO       ACCESS:      18269  HIT:      12799  MISS:       5470
L2C PREFETCH  ACCESS:    1245048  HIT:    1161447  MISS:      83601
L2C WRITEBACK ACCESS:      78951  HIT:      78585  MISS:        366
L2C PREFETCH  REQUESTED:    1279131  ISSUED:    1279089  USEFUL:       6507  USELESS:      77021
L2C AVERAGE MISS LATENCY: 117.518 cycles
LLC TOTAL     ACCESS:     462901  HIT:     317767  MISS:     145134
LLC LOAD      ACCESS:      80883  HIT:      32953  MISS:      47930
LLC RFO       ACCESS:       5470  HIT:       2467  MISS:       3003
LLC PREFETCH  ACCESS:     350931  HIT:     257247  MISS:      93684
LLC WRITEBACK ACCESS:      25617  HIT:      25100  MISS:        517
LLC PREFETCH  REQUESTED:          0  ISSUED:          0  USEFUL:      15396  USELESS:      78329
LLC AVERAGE MISS LATENCY: 159.983 cycles
Major fault: 0 Minor fault: 6364
I-Shadow cache 408 bytes
Touched + WorthPF tables 98304 bytes 
MMA filter 174 bytes 
FNL filter 272 bytes 
TOTAL PREFETCHER STORAGE SIZE: 389974 bytes
CPU 0 L1I next line prefetcher final stats
CPU 0 L1D next line prefetcher final stats

DRAM Statistics
 CHANNEL 0
 RQ ROW_BUFFER_HIT:      32731  ROW_BUFFER_MISS:     111885
 DBUS_CONGESTED:      61274
 WQ ROW_BUFFER_HIT:       3971  ROW_BUFFER_MISS:      13510  FULL:          0

 AVG_CONGESTED_CYCLE: 4

CPU 0 Branch Prediction Accuracy: 98.7418% MPKI: 2.47758 Average ROB Occupancy at Mispredict: 78.8828

Branch types
NOT_BRANCH: 40154100 80.3082%
BRANCH_DIRECT_JUMP: 817094 1.63419%
BRANCH_INDIRECT: 303787 0.607574%
BRANCH_CONDITIONAL: 7492103 14.9842%
BRANCH_DIRECT_CALL: 471777 0.943554%
BRANCH_INDIRECT_CALL: 144546 0.289092%
BRANCH_RETURN: 616324 1.23265%
BRANCH_OTHER: 0 0%

