Initialize SIGNATURE TABLE
ST_SET: 1
ST_WAY: 256
ST_TAG_BIT: 16
ST_TAG_MASK: ffff

Initialize PATTERN TABLE
PT_SET: 512
PT_WAY: 4
SIG_DELTA_BIT: 7
C_SIG_BIT: 4
C_DELTA_BIT: 4

Initialize PREFETCH FILTER
FILTER_SET: 1024

*** ChampSim Multicore Out-of-Order Simulator ***

Warmup Instructions: 50000000
Simulation Instructions: 50000000
Number of CPUs: 1
LLC sets: 2048
LLC ways: 16
Off-chip DRAM Size: 4096 MB Channels: 1 Width: 64-bit Data Rate: 3200 MT/s

CPU 0 runs /Users/brandon/Documents/CoursesWi22/CSE240C/Homework1/ChampSim/ipc1_public/spec_gcc_002.champsimtrace.xz
CPU 0 L1I next line prefetcher
CPU 0 L1D next line prefetcher
Heartbeat CPU 0 instructions: 10000002 cycles: 3577346 heartbeat IPC: 2.79537 cumulative IPC: 2.79537 (Simulation time: 0 hr 1 min 27 sec) 
Heartbeat CPU 0 instructions: 20000000 cycles: 7166249 heartbeat IPC: 2.78637 cumulative IPC: 2.79086 (Simulation time: 0 hr 2 min 48 sec) 
Heartbeat CPU 0 instructions: 30000000 cycles: 10872581 heartbeat IPC: 2.69809 cumulative IPC: 2.75923 (Simulation time: 0 hr 4 min 16 sec) 
Heartbeat CPU 0 instructions: 40000000 cycles: 14425210 heartbeat IPC: 2.81482 cumulative IPC: 2.77292 (Simulation time: 0 hr 5 min 34 sec) 
Heartbeat CPU 0 instructions: 50000002 cycles: 17928307 heartbeat IPC: 2.85462 cumulative IPC: 2.78889 (Simulation time: 0 hr 6 min 52 sec) 

Warmup complete CPU 0 instructions: 50000002 cycles: 17928307 (Simulation time: 0 hr 6 min 52 sec) 

Heartbeat CPU 0 instructions: 60000001 cycles: 49789985 heartbeat IPC: 0.313857 cumulative IPC: 0.313857 (Simulation time: 0 hr 9 min 52 sec) 
Heartbeat CPU 0 instructions: 70000001 cycles: 80587185 heartbeat IPC: 0.324705 cumulative IPC: 0.319189 (Simulation time: 0 hr 12 min 37 sec) 
Heartbeat CPU 0 instructions: 80000002 cycles: 126471623 heartbeat IPC: 0.217939 cumulative IPC: 0.276387 (Simulation time: 0 hr 15 min 28 sec) 
Heartbeat CPU 0 instructions: 90000001 cycles: 167755535 heartbeat IPC: 0.242225 cumulative IPC: 0.266974 (Simulation time: 0 hr 17 min 9 sec) 
Heartbeat CPU 0 instructions: 100000000 cycles: 191021554 heartbeat IPC: 0.429811 cumulative IPC: 0.288862 (Simulation time: 0 hr 17 min 33 sec) 
Finished CPU 0 instructions: 50000002 cycles: 173093633 cumulative IPC: 0.288861 (Simulation time: 0 hr 17 min 33 sec) 

ChampSim completed all CPUs

Region of Interest Statistics

CPU 0 cumulative IPC: 0.288861 instructions: 50000002 cycles: 173093633
L1D TOTAL     ACCESS:   18294266  HIT:   13060730  MISS:    5233536
L1D LOAD      ACCESS:    6342495  HIT:    5330093  MISS:    1012402
L1D RFO       ACCESS:    7068084  HIT:    3467514  MISS:    3600570
L1D PREFETCH  ACCESS:    4883687  HIT:    4263123  MISS:     620564
L1D WRITEBACK ACCESS:          0  HIT:          0  MISS:          0
L1D PREFETCH  REQUESTED:    6362711  ISSUED:    6292089  USEFUL:     460835  USELESS:     159945
L1D AVERAGE MISS LATENCY: 318.748 cycles
L1I TOTAL     ACCESS:   14099190  HIT:   12963251  MISS:    1135939
L1I LOAD      ACCESS:   12010763  HIT:   11929140  MISS:      81623
L1I RFO       ACCESS:          0  HIT:          0  MISS:          0
L1I PREFETCH  ACCESS:    2088427  HIT:    1034111  MISS:    1054316
L1I WRITEBACK ACCESS:          0  HIT:          0  MISS:          0
L1I PREFETCH  REQUESTED:    2221407  ISSUED:    2215486  USEFUL:     639295  USELESS:     415011
L1I AVERAGE MISS LATENCY: 48.9669 cycles
L2C TOTAL     ACCESS:   10499304  HIT:    5126909  MISS:    5372395
L2C LOAD      ACCESS:     306160  HIT:     128095  MISS:     178065
L2C RFO       ACCESS:    3599063  HIT:      10960  MISS:    3588103
L2C PREFETCH  ACCESS:    2868606  HIT:    1262522  MISS:    1606084
L2C WRITEBACK ACCESS:    3725475  HIT:    3725332  MISS:        143
L2C PREFETCH  REQUESTED:    3758947  ISSUED:    3758589  USEFUL:      34586  USELESS:    1571600
L2C AVERAGE MISS LATENCY: 318.629 cycles
LLC TOTAL     ACCESS:   10287981  HIT:    7094839  MISS:    3193142
LLC LOAD      ACCESS:     177959  HIT:     133434  MISS:      44525
LLC RFO       ACCESS:    3588104  HIT:     933532  MISS:    2654572
LLC PREFETCH  ACCESS:    2848467  HIT:    2354422  MISS:     494045
LLC WRITEBACK ACCESS:    3673451  HIT:    3673451  MISS:          0
LLC PREFETCH  REQUESTED:          0  ISSUED:          0  USEFUL:     185525  USELESS:     309215
LLC AVERAGE MISS LATENCY: 502.875 cycles
Major fault: 0 Minor fault: 4152
I-Shadow cache 408 bytes
Touched + WorthPF tables 98304 bytes 
MMA filter 174 bytes 
FNL filter 272 bytes 
TOTAL PREFETCHER STORAGE SIZE: 389974 bytes
CPU 0 L1I next line prefetcher final stats
CPU 0 L1D next line prefetcher final stats

DRAM Statistics
 CHANNEL 0
 RQ ROW_BUFFER_HIT:     861862  ROW_BUFFER_MISS:    2329265
 DBUS_CONGESTED:    4961171
 WQ ROW_BUFFER_HIT:     809345  ROW_BUFFER_MISS:    2047916  FULL:          0

 AVG_CONGESTED_CYCLE: 6

CPU 0 Branch Prediction Accuracy: 99.5987% MPKI: 0.82446 Average ROB Occupancy at Mispredict: 131.91

Branch types
NOT_BRANCH: 39726803 79.4536%
BRANCH_DIRECT_JUMP: 391438 0.782876%
BRANCH_INDIRECT: 62076 0.124152%
BRANCH_CONDITIONAL: 8421539 16.8431%
BRANCH_DIRECT_CALL: 672962 1.34592%
BRANCH_INDIRECT_CALL: 26115 0.05223%
BRANCH_RETURN: 699082 1.39816%
BRANCH_OTHER: 0 0%

