Initialize SIGNATURE TABLE
ST_SET: 1
ST_WAY: 256
ST_TAG_BIT: 16
ST_TAG_MASK: ffff

Initialize PATTERN TABLE
PT_SET: 512
PT_WAY: 4
SIG_DELTA_BIT: 7
C_SIG_BIT: 4
C_DELTA_BIT: 4

Initialize PREFETCH FILTER
FILTER_SET: 1024

*** ChampSim Multicore Out-of-Order Simulator ***

Warmup Instructions: 50000000
Simulation Instructions: 50000000
Number of CPUs: 1
LLC sets: 2048
LLC ways: 16
Off-chip DRAM Size: 4096 MB Channels: 1 Width: 64-bit Data Rate: 3200 MT/s

CPU 0 runs /Users/brandon/Documents/CoursesWi22/CSE240C/Homework1/ChampSim/ipc1_public/spec_x264_001.champsimtrace.xz
CPU 0 L1I next line prefetcher
CPU 0 L1D next line prefetcher
Heartbeat CPU 0 instructions: 10000002 cycles: 3060438 heartbeat IPC: 3.26751 cumulative IPC: 3.26751 (Simulation time: 0 hr 1 min 13 sec) 
Heartbeat CPU 0 instructions: 20000002 cycles: 6111016 heartbeat IPC: 3.27807 cumulative IPC: 3.27278 (Simulation time: 0 hr 2 min 25 sec) 
Heartbeat CPU 0 instructions: 30000002 cycles: 9147044 heartbeat IPC: 3.29378 cumulative IPC: 3.27975 (Simulation time: 0 hr 3 min 34 sec) 
Heartbeat CPU 0 instructions: 40000000 cycles: 12192142 heartbeat IPC: 3.28397 cumulative IPC: 3.2808 (Simulation time: 0 hr 4 min 42 sec) 
Heartbeat CPU 0 instructions: 50000000 cycles: 15235547 heartbeat IPC: 3.28579 cumulative IPC: 3.2818 (Simulation time: 0 hr 5 min 51 sec) 

Warmup complete CPU 0 instructions: 50000004 cycles: 15235548 (Simulation time: 0 hr 5 min 51 sec) 

Heartbeat CPU 0 instructions: 60000002 cycles: 21163169 heartbeat IPC: 1.68702 cumulative IPC: 1.68702 (Simulation time: 0 hr 6 min 32 sec) 
Heartbeat CPU 0 instructions: 70000000 cycles: 27073140 heartbeat IPC: 1.69206 cumulative IPC: 1.68953 (Simulation time: 0 hr 7 min 12 sec) 
Heartbeat CPU 0 instructions: 80000003 cycles: 33125759 heartbeat IPC: 1.65218 cumulative IPC: 1.67689 (Simulation time: 0 hr 7 min 53 sec) 
Heartbeat CPU 0 instructions: 90000002 cycles: 39158081 heartbeat IPC: 1.65774 cumulative IPC: 1.67206 (Simulation time: 0 hr 8 min 35 sec) 
Heartbeat CPU 0 instructions: 100000002 cycles: 45053537 heartbeat IPC: 1.69622 cumulative IPC: 1.67684 (Simulation time: 0 hr 9 min 16 sec) 
Finished CPU 0 instructions: 50000002 cycles: 29817990 cumulative IPC: 1.67684 (Simulation time: 0 hr 9 min 16 sec) 

ChampSim completed all CPUs

Region of Interest Statistics

CPU 0 cumulative IPC: 1.67684 instructions: 50000002 cycles: 29817990
L1D TOTAL     ACCESS:   12960383  HIT:   12799297  MISS:     161086
L1D LOAD      ACCESS:    5091689  HIT:    5036511  MISS:      55178
L1D RFO       ACCESS:    2883535  HIT:    2849295  MISS:      34240
L1D PREFETCH  ACCESS:    4985159  HIT:    4913491  MISS:      71668
L1D WRITEBACK ACCESS:          0  HIT:          0  MISS:          0
L1D PREFETCH  REQUESTED:    5108282  ISSUED:    5041506  USEFUL:      25785  USELESS:      45692
L1D AVERAGE MISS LATENCY: 39.3121 cycles
L1I TOTAL     ACCESS:    8579566  HIT:    8199522  MISS:     380044
L1I LOAD      ACCESS:    8039601  HIT:    8036057  MISS:       3544
L1I RFO       ACCESS:          0  HIT:          0  MISS:          0
L1I PREFETCH  ACCESS:     539965  HIT:     163465  MISS:     376500
L1I WRITEBACK ACCESS:          0  HIT:          0  MISS:          0
L1I PREFETCH  REQUESTED:     549477  ISSUED:     549477  USEFUL:     299135  USELESS:      77406
L1I AVERAGE MISS LATENCY: 14.7819 cycles
L2C TOTAL     ACCESS:     766546  HIT:     727252  MISS:      39294
L2C LOAD      ACCESS:      57180  HIT:      51684  MISS:       5496
L2C RFO       ACCESS:      33990  HIT:      21930  MISS:      12060
L2C PREFETCH  ACCESS:     632317  HIT:     610658  MISS:      21659
L2C WRITEBACK ACCESS:      43059  HIT:      42980  MISS:         79
L2C PREFETCH  REQUESTED:     606482  ISSUED:     604736  USEFUL:       8997  USELESS:      12878
L2C AVERAGE MISS LATENCY: 100.647 cycles
LLC TOTAL     ACCESS:     140341  HIT:     111300  MISS:      29041
LLC LOAD      ACCESS:       5496  HIT:       3391  MISS:       2105
LLC RFO       ACCESS:      12060  HIT:        458  MISS:      11602
LLC PREFETCH  ACCESS:     109210  HIT:      93970  MISS:      15240
LLC WRITEBACK ACCESS:      13575  HIT:      13481  MISS:         94
LLC PREFETCH  REQUESTED:          0  ISSUED:          0  USEFUL:       1788  USELESS:      14073
LLC AVERAGE MISS LATENCY: 161.402 cycles
Major fault: 0 Minor fault: 1284
I-Shadow cache 408 bytes
Touched + WorthPF tables 98304 bytes 
MMA filter 174 bytes 
FNL filter 272 bytes 
TOTAL PREFETCHER STORAGE SIZE: 389974 bytes
CPU 0 L1I next line prefetcher final stats
CPU 0 L1D next line prefetcher final stats

DRAM Statistics
 CHANNEL 0
 RQ ROW_BUFFER_HIT:      10125  ROW_BUFFER_MISS:      18822
 DBUS_CONGESTED:      12657
 WQ ROW_BUFFER_HIT:       2938  ROW_BUFFER_MISS:       9709  FULL:          0

 AVG_CONGESTED_CYCLE: 6

CPU 0 Branch Prediction Accuracy: 97.1633% MPKI: 1.73704 Average ROB Occupancy at Mispredict: 42.8565

Branch types
NOT_BRANCH: 46937921 93.8758%
BRANCH_DIRECT_JUMP: 170816 0.341632%
BRANCH_INDIRECT: 0 0%
BRANCH_CONDITIONAL: 2532774 5.06555%
BRANCH_DIRECT_CALL: 114227 0.228454%
BRANCH_INDIRECT_CALL: 64863 0.129726%
BRANCH_RETURN: 179089 0.358178%
BRANCH_OTHER: 0 0%

