Initialize SIGNATURE TABLE
ST_SET: 1
ST_WAY: 256
ST_TAG_BIT: 16
ST_TAG_MASK: ffff

Initialize PATTERN TABLE
PT_SET: 512
PT_WAY: 4
SIG_DELTA_BIT: 7
C_SIG_BIT: 4
C_DELTA_BIT: 4

Initialize PREFETCH FILTER
FILTER_SET: 1024

*** ChampSim Multicore Out-of-Order Simulator ***

Warmup Instructions: 50000000
Simulation Instructions: 50000000
Number of CPUs: 1
LLC sets: 2048
LLC ways: 16
Off-chip DRAM Size: 4096 MB Channels: 1 Width: 64-bit Data Rate: 3200 MT/s

CPU 0 runs /Users/brandon/Documents/CoursesWi22/CSE240C/Homework1/ChampSim/ipc1_public/client_005.champsimtrace.xz
L1I D-JOLT instruction prefetcher has been constructed!
CPU 0 L1D next line prefetcher
Heartbeat CPU 0 instructions: 10000001 cycles: 3291521 heartbeat IPC: 3.03811 cumulative IPC: 3.03811 (Simulation time: 0 hr 1 min 19 sec) 
Heartbeat CPU 0 instructions: 20000002 cycles: 6698615 heartbeat IPC: 2.93505 cumulative IPC: 2.98569 (Simulation time: 0 hr 2 min 56 sec) 
Heartbeat CPU 0 instructions: 30000001 cycles: 10391973 heartbeat IPC: 2.70756 cumulative IPC: 2.88684 (Simulation time: 0 hr 4 min 50 sec) 
Heartbeat CPU 0 instructions: 40000000 cycles: 14069874 heartbeat IPC: 2.71894 cumulative IPC: 2.84295 (Simulation time: 0 hr 6 min 47 sec) 
Heartbeat CPU 0 instructions: 50000001 cycles: 17343662 heartbeat IPC: 3.05457 cumulative IPC: 2.8829 (Simulation time: 0 hr 8 min 30 sec) 

Warmup complete CPU 0 instructions: 50000001 cycles: 17343662 (Simulation time: 0 hr 8 min 30 sec) 

Heartbeat CPU 0 instructions: 60000002 cycles: 25092926 heartbeat IPC: 1.29045 cumulative IPC: 1.29045 (Simulation time: 0 hr 10 min 4 sec) 
Heartbeat CPU 0 instructions: 70000003 cycles: 32396154 heartbeat IPC: 1.36926 cumulative IPC: 1.32868 (Simulation time: 0 hr 11 min 49 sec) 
Heartbeat CPU 0 instructions: 80000001 cycles: 39256603 heartbeat IPC: 1.45763 cumulative IPC: 1.36905 (Simulation time: 0 hr 13 min 43 sec) 
Heartbeat CPU 0 instructions: 90000002 cycles: 48758796 heartbeat IPC: 1.05239 cumulative IPC: 1.27327 (Simulation time: 0 hr 15 min 33 sec) 
Heartbeat CPU 0 instructions: 100000002 cycles: 56397467 heartbeat IPC: 1.30913 cumulative IPC: 1.28029 (Simulation time: 0 hr 16 min 27 sec) 
Finished CPU 0 instructions: 50000001 cycles: 39053805 cumulative IPC: 1.28029 (Simulation time: 0 hr 16 min 27 sec) 

ChampSim completed all CPUs

Region of Interest Statistics

CPU 0 cumulative IPC: 1.28029 instructions: 50000001 cycles: 39053805
L1D TOTAL     ACCESS:   19616057  HIT:   19080302  MISS:     535755
L1D LOAD      ACCESS:    6639113  HIT:    6467190  MISS:     171923
L1D RFO       ACCESS:    6789654  HIT:    6605031  MISS:     184623
L1D PREFETCH  ACCESS:    6187290  HIT:    6008081  MISS:     179209
L1D WRITEBACK ACCESS:          0  HIT:          0  MISS:          0
L1D PREFETCH  REQUESTED:    6663103  ISSUED:    6293884  USEFUL:      59164  USELESS:     119933
L1D AVERAGE MISS LATENCY: 95.2738 cycles
L1I TOTAL     ACCESS:   19415312  HIT:   16260609  MISS:    3154703
L1I LOAD      ACCESS:    9388755  HIT:    9266094  MISS:     122661
L1I RFO       ACCESS:          0  HIT:          0  MISS:          0
L1I PREFETCH  ACCESS:   10026557  HIT:    6994515  MISS:    3032042
L1I WRITEBACK ACCESS:          0  HIT:          0  MISS:          0
L1I PREFETCH  REQUESTED:   10755790  ISSUED:   10267107  USEFUL:    1156727  USELESS:    1875213
L1I AVERAGE MISS LATENCY: 16.5713 cycles
L2C TOTAL     ACCESS:    5172290  HIT:    4760223  MISS:     412067
L2C LOAD      ACCESS:     258827  HIT:     168252  MISS:      90575
L2C RFO       ACCESS:     180889  HIT:      30512  MISS:     150377
L2C PREFETCH  ACCESS:    4479510  HIT:    4309815  MISS:     169695
L2C WRITEBACK ACCESS:     253064  HIT:     251644  MISS:       1420
L2C PREFETCH  REQUESTED:    2400077  ISSUED:    2399808  USEFUL:      20087  USELESS:     148095
L2C AVERAGE MISS LATENCY: 123.563 cycles
LLC TOTAL     ACCESS:    1019821  HIT:     719457  MISS:     300364
LLC LOAD      ACCESS:      90555  HIT:      46358  MISS:      44197
LLC RFO       ACCESS:     150374  HIT:      16400  MISS:     133974
LLC PREFETCH  ACCESS:     577737  HIT:     456350  MISS:     121387
LLC WRITEBACK ACCESS:     201155  HIT:     200349  MISS:        806
LLC PREFETCH  REQUESTED:          0  ISSUED:          0  USEFUL:      25536  USELESS:      93121
LLC AVERAGE MISS LATENCY: 169.16 cycles
Major fault: 0 Minor fault: 6089
CPU 0 L1D next line prefetcher final stats

DRAM Statistics
 CHANNEL 0
 RQ ROW_BUFFER_HIT:      95134  ROW_BUFFER_MISS:     204415
 DBUS_CONGESTED:     231141
 WQ ROW_BUFFER_HIT:      53373  ROW_BUFFER_MISS:     129214  FULL:          0

 AVG_CONGESTED_CYCLE: 6

CPU 0 Branch Prediction Accuracy: 97.8666% MPKI: 3.9013 Average ROB Occupancy at Mispredict: 88.5987

Branch types
NOT_BRANCH: 40856323 81.7126%
BRANCH_DIRECT_JUMP: 484667 0.969334%
BRANCH_INDIRECT: 85086 0.170172%
BRANCH_CONDITIONAL: 6230886 12.4618%
BRANCH_DIRECT_CALL: 1028917 2.05783%
BRANCH_INDIRECT_CALL: 141825 0.28365%
BRANCH_RETURN: 1171985 2.34397%
BRANCH_OTHER: 0 0%

