Initialize SIGNATURE TABLE
ST_SET: 1
ST_WAY: 256
ST_TAG_BIT: 16
ST_TAG_MASK: ffff

Initialize PATTERN TABLE
PT_SET: 512
PT_WAY: 4
SIG_DELTA_BIT: 7
C_SIG_BIT: 4
C_DELTA_BIT: 4

Initialize PREFETCH FILTER
FILTER_SET: 1024

*** ChampSim Multicore Out-of-Order Simulator ***

Warmup Instructions: 50000000
Simulation Instructions: 50000000
Number of CPUs: 1
LLC sets: 2048
LLC ways: 16
Off-chip DRAM Size: 4096 MB Channels: 1 Width: 64-bit Data Rate: 3200 MT/s

CPU 0 runs /Users/brandon/Documents/CoursesWi22/CSE240C/Homework1/ChampSim/ipc1_public/server_025.champsimtrace.xz
L1I D-JOLT instruction prefetcher has been constructed!
CPU 0 L1D next line prefetcher
Heartbeat CPU 0 instructions: 10000003 cycles: 3526236 heartbeat IPC: 2.83589 cumulative IPC: 2.83589 (Simulation time: 0 hr 1 min 45 sec) 
Heartbeat CPU 0 instructions: 20000000 cycles: 7059577 heartbeat IPC: 2.83018 cumulative IPC: 2.83303 (Simulation time: 0 hr 3 min 30 sec) 
Heartbeat CPU 0 instructions: 30000001 cycles: 10585103 heartbeat IPC: 2.83646 cumulative IPC: 2.83417 (Simulation time: 0 hr 5 min 17 sec) 
Heartbeat CPU 0 instructions: 40000003 cycles: 14116742 heartbeat IPC: 2.83155 cumulative IPC: 2.83352 (Simulation time: 0 hr 7 min 4 sec) 
Heartbeat CPU 0 instructions: 50000001 cycles: 17646302 heartbeat IPC: 2.83321 cumulative IPC: 2.83345 (Simulation time: 0 hr 8 min 49 sec) 

Warmup complete CPU 0 instructions: 50000001 cycles: 17646302 (Simulation time: 0 hr 8 min 49 sec) 

Heartbeat CPU 0 instructions: 60000002 cycles: 24465171 heartbeat IPC: 1.46652 cumulative IPC: 1.46652 (Simulation time: 0 hr 10 min 36 sec) 
Heartbeat CPU 0 instructions: 70000000 cycles: 31383930 heartbeat IPC: 1.44535 cumulative IPC: 1.45586 (Simulation time: 0 hr 12 min 26 sec) 
Heartbeat CPU 0 instructions: 80000002 cycles: 38228569 heartbeat IPC: 1.461 cumulative IPC: 1.45757 (Simulation time: 0 hr 14 min 4 sec) 
Heartbeat CPU 0 instructions: 90000001 cycles: 44738660 heartbeat IPC: 1.53608 cumulative IPC: 1.47643 (Simulation time: 0 hr 15 min 32 sec) 
Heartbeat CPU 0 instructions: 100000003 cycles: 50952667 heartbeat IPC: 1.60927 cumulative IPC: 1.50121 (Simulation time: 0 hr 16 min 50 sec) 
Finished CPU 0 instructions: 50000002 cycles: 33306365 cumulative IPC: 1.50121 (Simulation time: 0 hr 16 min 50 sec) 

ChampSim completed all CPUs

Region of Interest Statistics

CPU 0 cumulative IPC: 1.50121 instructions: 50000002 cycles: 33306365
L1D TOTAL     ACCESS:   19970838  HIT:   18545494  MISS:    1425344
L1D LOAD      ACCESS:    6950709  HIT:    6331935  MISS:     618774
L1D RFO       ACCESS:    6379989  HIT:    6132011  MISS:     247978
L1D PREFETCH  ACCESS:    6640140  HIT:    6081548  MISS:     558592
L1D WRITEBACK ACCESS:          0  HIT:          0  MISS:          0
L1D PREFETCH  REQUESTED:    6991068  ISSUED:    6816000  USEFUL:     131309  USELESS:     427277
L1D AVERAGE MISS LATENCY: 23.6465 cycles
L1I TOTAL     ACCESS:   15721615  HIT:   12902232  MISS:    2819383
L1I LOAD      ACCESS:    9502873  HIT:    9454184  MISS:      48689
L1I RFO       ACCESS:          0  HIT:          0  MISS:          0
L1I PREFETCH  ACCESS:    6218742  HIT:    3448048  MISS:    2770694
L1I WRITEBACK ACCESS:          0  HIT:          0  MISS:          0
L1I PREFETCH  REQUESTED:    6572246  ISSUED:    6512349  USEFUL:    2423166  USELESS:     347520
L1I AVERAGE MISS LATENCY: 19.5726 cycles
L2C TOTAL     ACCESS:    5928721  HIT:    5186873  MISS:     741848
L2C LOAD      ACCESS:     634735  HIT:     503960  MISS:     130775
L2C RFO       ACCESS:     246590  HIT:     172341  MISS:      74249
L2C PREFETCH  ACCESS:    4550634  HIT:    4016456  MISS:     534178
L2C WRITEBACK ACCESS:     496762  HIT:     494116  MISS:       2646
L2C PREFETCH  REQUESTED:    4018019  ISSUED:    4011850  USEFUL:       8673  USELESS:     525244
L2C AVERAGE MISS LATENCY: 37.3761 cycles
LLC TOTAL     ACCESS:    1930130  HIT:    1900619  MISS:      29511
LLC LOAD      ACCESS:     130676  HIT:     127502  MISS:       3174
LLC RFO       ACCESS:      74238  HIT:      63422  MISS:      10816
LLC PREFETCH  ACCESS:    1591673  HIT:    1576341  MISS:      15332
LLC WRITEBACK ACCESS:     133543  HIT:     133354  MISS:        189
LLC PREFETCH  REQUESTED:          0  ISSUED:          0  USEFUL:       1052  USELESS:      13463
LLC AVERAGE MISS LATENCY: 179.89 cycles
Major fault: 0 Minor fault: 2463
CPU 0 L1D next line prefetcher final stats

DRAM Statistics
 CHANNEL 0
 RQ ROW_BUFFER_HIT:       9321  ROW_BUFFER_MISS:      19993
 DBUS_CONGESTED:      18626
 WQ ROW_BUFFER_HIT:       1407  ROW_BUFFER_MISS:      11953  FULL:          0

 AVG_CONGESTED_CYCLE: 6

CPU 0 Branch Prediction Accuracy: 99.8142% MPKI: 0.34676 Average ROB Occupancy at Mispredict: 203.566

Branch types
NOT_BRANCH: 40668928 81.3379%
BRANCH_DIRECT_JUMP: 531701 1.0634%
BRANCH_INDIRECT: 199025 0.39805%
BRANCH_CONDITIONAL: 6211500 12.423%
BRANCH_DIRECT_CALL: 1010912 2.02182%
BRANCH_INDIRECT_CALL: 183501 0.367002%
BRANCH_RETURN: 1194416 2.38883%
BRANCH_OTHER: 0 0%

