Initialize SIGNATURE TABLE
ST_SET: 1
ST_WAY: 256
ST_TAG_BIT: 16
ST_TAG_MASK: ffff

Initialize PATTERN TABLE
PT_SET: 512
PT_WAY: 4
SIG_DELTA_BIT: 7
C_SIG_BIT: 4
C_DELTA_BIT: 4

Initialize PREFETCH FILTER
FILTER_SET: 1024

*** ChampSim Multicore Out-of-Order Simulator ***

Warmup Instructions: 50000000
Simulation Instructions: 50000000
Number of CPUs: 1
LLC sets: 2048
LLC ways: 16
Off-chip DRAM Size: 4096 MB Channels: 1 Width: 64-bit Data Rate: 3200 MT/s

CPU 0 runs /Users/brandon/Documents/CoursesWi22/CSE240C/Homework1/ChampSim/ipc1_public/server_026.champsimtrace.xz
L1I D-JOLT instruction prefetcher has been constructed!
CPU 0 L1D next line prefetcher
Heartbeat CPU 0 instructions: 10000000 cycles: 3524328 heartbeat IPC: 2.83742 cumulative IPC: 2.83742 (Simulation time: 0 hr 1 min 46 sec) 
Heartbeat CPU 0 instructions: 20000002 cycles: 7054329 heartbeat IPC: 2.83286 cumulative IPC: 2.83514 (Simulation time: 0 hr 3 min 31 sec) 
Heartbeat CPU 0 instructions: 30000000 cycles: 10574252 heartbeat IPC: 2.84097 cumulative IPC: 2.83708 (Simulation time: 0 hr 5 min 17 sec) 
Heartbeat CPU 0 instructions: 40000003 cycles: 14103360 heartbeat IPC: 2.83358 cumulative IPC: 2.8362 (Simulation time: 0 hr 7 min 3 sec) 
Heartbeat CPU 0 instructions: 50000000 cycles: 17624905 heartbeat IPC: 2.83966 cumulative IPC: 2.83689 (Simulation time: 0 hr 8 min 49 sec) 

Warmup complete CPU 0 instructions: 50000004 cycles: 17624906 (Simulation time: 0 hr 8 min 49 sec) 

*** Reached end of trace for Core: 0 Repeating trace: /Users/brandon/Documents/CoursesWi22/CSE240C/Homework1/ChampSim/ipc1_public/server_026.champsimtrace.xz
Heartbeat CPU 0 instructions: 60000000 cycles: 24538789 heartbeat IPC: 1.44636 cumulative IPC: 1.44636 (Simulation time: 0 hr 10 min 36 sec) 
Heartbeat CPU 0 instructions: 70000003 cycles: 31344281 heartbeat IPC: 1.4694 cumulative IPC: 1.45779 (Simulation time: 0 hr 12 min 24 sec) 
Heartbeat CPU 0 instructions: 80000002 cycles: 38242350 heartbeat IPC: 1.44968 cumulative IPC: 1.45508 (Simulation time: 0 hr 14 min 2 sec) 
Heartbeat CPU 0 instructions: 90000002 cycles: 45030301 heartbeat IPC: 1.4732 cumulative IPC: 1.45957 (Simulation time: 0 hr 15 min 32 sec) 
Heartbeat CPU 0 instructions: 100000000 cycles: 51907653 heartbeat IPC: 1.45405 cumulative IPC: 1.45846 (Simulation time: 0 hr 16 min 51 sec) 
Finished CPU 0 instructions: 50000000 cycles: 34282748 cumulative IPC: 1.45846 (Simulation time: 0 hr 16 min 51 sec) 

ChampSim completed all CPUs

Region of Interest Statistics

CPU 0 cumulative IPC: 1.45846 instructions: 50000000 cycles: 34282748
L1D TOTAL     ACCESS:   19765355  HIT:   18120402  MISS:    1644953
L1D LOAD      ACCESS:    6928309  HIT:    6199591  MISS:     728718
L1D RFO       ACCESS:    6243826  HIT:    5957497  MISS:     286329
L1D PREFETCH  ACCESS:    6593220  HIT:    5963314  MISS:     629906
L1D WRITEBACK ACCESS:          0  HIT:          0  MISS:          0
L1D PREFETCH  REQUESTED:    6974104  ISSUED:    6831665  USEFUL:     152346  USELESS:     477569
L1D AVERAGE MISS LATENCY: 24.0136 cycles
L1I TOTAL     ACCESS:   16186521  HIT:   13003908  MISS:    3182613
L1I LOAD      ACCESS:    9504594  HIT:    9460070  MISS:      44524
L1I RFO       ACCESS:          0  HIT:          0  MISS:          0
L1I PREFETCH  ACCESS:    6681927  HIT:    3543838  MISS:    3138089
L1I WRITEBACK ACCESS:          0  HIT:          0  MISS:          0
L1I PREFETCH  REQUESTED:    7095307  ISSUED:    7019478  USEFUL:    2744312  USELESS:     393755
L1I AVERAGE MISS LATENCY: 19.962 cycles
L2C TOTAL     ACCESS:    6719156  HIT:    5821036  MISS:     898120
L2C LOAD      ACCESS:     720595  HIT:     574322  MISS:     146273
L2C RFO       ACCESS:     284713  HIT:     195959  MISS:      88754
L2C PREFETCH  ACCESS:    5152663  HIT:    4495375  MISS:     657288
L2C WRITEBACK ACCESS:     561185  HIT:     555380  MISS:       5805
L2C PREFETCH  REQUESTED:    4751337  ISSUED:    4744499  USEFUL:      11651  USELESS:     645393
L2C AVERAGE MISS LATENCY: 37.7063 cycles
LLC TOTAL     ACCESS:    2366480  HIT:    2331943  MISS:      34537
LLC LOAD      ACCESS:     146053  HIT:     142695  MISS:       3358
LLC RFO       ACCESS:      88754  HIT:      74189  MISS:      14565
LLC PREFETCH  ACCESS:    1975040  HIT:    1958604  MISS:      16436
LLC WRITEBACK ACCESS:     156633  HIT:     156455  MISS:        178
LLC PREFETCH  REQUESTED:          0  ISSUED:          0  USEFUL:        995  USELESS:      15459
LLC AVERAGE MISS LATENCY: 190 cycles
Major fault: 0 Minor fault: 2174
CPU 0 L1D next line prefetcher final stats

DRAM Statistics
 CHANNEL 0
 RQ ROW_BUFFER_HIT:      12297  ROW_BUFFER_MISS:      22053
 DBUS_CONGESTED:      23459
 WQ ROW_BUFFER_HIT:       1486  ROW_BUFFER_MISS:      14428  FULL:          0

 AVG_CONGESTED_CYCLE: 6

CPU 0 Branch Prediction Accuracy: 99.822% MPKI: 0.32584 Average ROB Occupancy at Mispredict: 201.859

Branch types
NOT_BRANCH: 40848585 81.6972%
BRANCH_DIRECT_JUMP: 522045 1.04409%
BRANCH_INDIRECT: 204034 0.408068%
BRANCH_CONDITIONAL: 6212965 12.4259%
BRANCH_DIRECT_CALL: 932393 1.86479%
BRANCH_INDIRECT_CALL: 173764 0.347528%
BRANCH_RETURN: 1106152 2.2123%
BRANCH_OTHER: 0 0%

