Initialize SIGNATURE TABLE
ST_SET: 1
ST_WAY: 256
ST_TAG_BIT: 16
ST_TAG_MASK: ffff

Initialize PATTERN TABLE
PT_SET: 512
PT_WAY: 4
SIG_DELTA_BIT: 7
C_SIG_BIT: 4
C_DELTA_BIT: 4

Initialize PREFETCH FILTER
FILTER_SET: 1024

*** ChampSim Multicore Out-of-Order Simulator ***

Warmup Instructions: 50000000
Simulation Instructions: 50000000
Number of CPUs: 1
LLC sets: 2048
LLC ways: 16
Off-chip DRAM Size: 4096 MB Channels: 1 Width: 64-bit Data Rate: 3200 MT/s

CPU 0 runs /Users/brandon/Documents/CoursesWi22/CSE240C/Homework1/ChampSim/ipc1_public/server_031.champsimtrace.xz
L1I D-JOLT instruction prefetcher has been constructed!
CPU 0 L1D next line prefetcher
Heartbeat CPU 0 instructions: 10000003 cycles: 3521418 heartbeat IPC: 2.83977 cumulative IPC: 2.83977 (Simulation time: 0 hr 1 min 48 sec) 
Heartbeat CPU 0 instructions: 20000002 cycles: 7042163 heartbeat IPC: 2.84031 cumulative IPC: 2.84004 (Simulation time: 0 hr 3 min 35 sec) 
Heartbeat CPU 0 instructions: 30000002 cycles: 10562886 heartbeat IPC: 2.84033 cumulative IPC: 2.84013 (Simulation time: 0 hr 5 min 25 sec) 
Heartbeat CPU 0 instructions: 40000003 cycles: 14078578 heartbeat IPC: 2.84439 cumulative IPC: 2.8412 (Simulation time: 0 hr 7 min 14 sec) 
Heartbeat CPU 0 instructions: 50000001 cycles: 17596629 heartbeat IPC: 2.84248 cumulative IPC: 2.84145 (Simulation time: 0 hr 9 min 1 sec) 

Warmup complete CPU 0 instructions: 50000001 cycles: 17596629 (Simulation time: 0 hr 9 min 1 sec) 

Heartbeat CPU 0 instructions: 60000001 cycles: 25108468 heartbeat IPC: 1.33123 cumulative IPC: 1.33123 (Simulation time: 0 hr 10 min 55 sec) 
Heartbeat CPU 0 instructions: 70000002 cycles: 32684496 heartbeat IPC: 1.31995 cumulative IPC: 1.32557 (Simulation time: 0 hr 12 min 45 sec) 
*** Reached end of trace for Core: 0 Repeating trace: /Users/brandon/Documents/CoursesWi22/CSE240C/Homework1/ChampSim/ipc1_public/server_031.champsimtrace.xz
Heartbeat CPU 0 instructions: 80000000 cycles: 40126619 heartbeat IPC: 1.3437 cumulative IPC: 1.33156 (Simulation time: 0 hr 14 min 26 sec) 
Heartbeat CPU 0 instructions: 90000003 cycles: 47599702 heartbeat IPC: 1.33814 cumulative IPC: 1.3332 (Simulation time: 0 hr 15 min 57 sec) 
Heartbeat CPU 0 instructions: 100000000 cycles: 55040097 heartbeat IPC: 1.34401 cumulative IPC: 1.33535 (Simulation time: 0 hr 17 min 5 sec) 
Finished CPU 0 instructions: 50000000 cycles: 37443470 cumulative IPC: 1.33535 (Simulation time: 0 hr 17 min 5 sec) 

ChampSim completed all CPUs

Region of Interest Statistics

CPU 0 cumulative IPC: 1.33535 instructions: 50000000 cycles: 37443470
L1D TOTAL     ACCESS:   19484288  HIT:   17579814  MISS:    1904474
L1D LOAD      ACCESS:    6755069  HIT:    5881729  MISS:     873340
L1D RFO       ACCESS:    6319294  HIT:    6027249  MISS:     292045
L1D PREFETCH  ACCESS:    6409925  HIT:    5670836  MISS:     739089
L1D WRITEBACK ACCESS:          0  HIT:          0  MISS:          0
L1D PREFETCH  REQUESTED:    6817913  ISSUED:    6701889  USEFUL:     173555  USELESS:     565539
L1D AVERAGE MISS LATENCY: 23.1526 cycles
L1I TOTAL     ACCESS:   17634121  HIT:   14096934  MISS:    3537187
L1I LOAD      ACCESS:    9736179  HIT:    9701633  MISS:      34546
L1I RFO       ACCESS:          0  HIT:          0  MISS:          0
L1I PREFETCH  ACCESS:    7897942  HIT:    4395301  MISS:    3502641
L1I WRITEBACK ACCESS:          0  HIT:          0  MISS:          0
L1I PREFETCH  REQUESTED:    8462440  ISSUED:    8321641  USEFUL:    3020137  USELESS:     482512
L1I AVERAGE MISS LATENCY: 18.3556 cycles
L2C TOTAL     ACCESS:    7765328  HIT:    7056092  MISS:     709236
L2C LOAD      ACCESS:     857221  HIT:     710213  MISS:     147008
L2C RFO       ACCESS:     289624  HIT:     246377  MISS:      43247
L2C PREFETCH  ACCESS:    6001536  HIT:    5484129  MISS:     517407
L2C WRITEBACK ACCESS:     616947  HIT:     615373  MISS:       1574
L2C PREFETCH  REQUESTED:    5744477  ISSUED:    5734383  USEFUL:       6507  USELESS:     510338
L2C AVERAGE MISS LATENCY: 42.961 cycles
LLC TOTAL     ACCESS:    2366325  HIT:    2287163  MISS:      79162
LLC LOAD      ACCESS:     146892  HIT:     128188  MISS:      18704
LLC RFO       ACCESS:      43225  HIT:      39049  MISS:       4176
LLC PREFETCH  ACCESS:    2085195  HIT:    2029441  MISS:      55754
LLC WRITEBACK ACCESS:      91013  HIT:      90485  MISS:        528
LLC PREFETCH  REQUESTED:          0  ISSUED:          0  USEFUL:       2472  USELESS:      53315
LLC AVERAGE MISS LATENCY: 158.592 cycles
Major fault: 0 Minor fault: 6047
CPU 0 L1D next line prefetcher final stats

DRAM Statistics
 CHANNEL 0
 RQ ROW_BUFFER_HIT:      21502  ROW_BUFFER_MISS:      57128
 DBUS_CONGESTED:      32014
 WQ ROW_BUFFER_HIT:        769  ROW_BUFFER_MISS:       5118  FULL:          0

 AVG_CONGESTED_CYCLE: 4

CPU 0 Branch Prediction Accuracy: 99.6894% MPKI: 0.58048 Average ROB Occupancy at Mispredict: 145.906

Branch types
NOT_BRANCH: 40655652 81.3113%
BRANCH_DIRECT_JUMP: 546483 1.09297%
BRANCH_INDIRECT: 172433 0.344866%
BRANCH_CONDITIONAL: 6207593 12.4152%
BRANCH_DIRECT_CALL: 1018497 2.03699%
BRANCH_INDIRECT_CALL: 190373 0.380746%
BRANCH_RETURN: 1208855 2.41771%
BRANCH_OTHER: 0 0%

