Initialize SIGNATURE TABLE
ST_SET: 1
ST_WAY: 256
ST_TAG_BIT: 16
ST_TAG_MASK: ffff

Initialize PATTERN TABLE
PT_SET: 512
PT_WAY: 4
SIG_DELTA_BIT: 7
C_SIG_BIT: 4
C_DELTA_BIT: 4

Initialize PREFETCH FILTER
FILTER_SET: 1024

*** ChampSim Multicore Out-of-Order Simulator ***

Warmup Instructions: 50000000
Simulation Instructions: 50000000
Number of CPUs: 1
LLC sets: 2048
LLC ways: 16
Off-chip DRAM Size: 4096 MB Channels: 1 Width: 64-bit Data Rate: 3200 MT/s

CPU 0 runs /Users/brandon/Documents/CoursesWi22/CSE240C/Homework1/ChampSim/ipc1_public/server_027.champsimtrace.xz
L1I D-JOLT instruction prefetcher has been constructed!
CPU 0 L1D next line prefetcher
Heartbeat CPU 0 instructions: 10000001 cycles: 3524516 heartbeat IPC: 2.83727 cumulative IPC: 2.83727 (Simulation time: 0 hr 1 min 45 sec) 
Heartbeat CPU 0 instructions: 20000001 cycles: 7053981 heartbeat IPC: 2.83329 cumulative IPC: 2.83528 (Simulation time: 0 hr 3 min 30 sec) 
Heartbeat CPU 0 instructions: 30000002 cycles: 10579124 heartbeat IPC: 2.83676 cumulative IPC: 2.83577 (Simulation time: 0 hr 5 min 18 sec) 
Heartbeat CPU 0 instructions: 40000000 cycles: 14109892 heartbeat IPC: 2.83224 cumulative IPC: 2.83489 (Simulation time: 0 hr 7 min 4 sec) 
Heartbeat CPU 0 instructions: 50000001 cycles: 17634566 heartbeat IPC: 2.83714 cumulative IPC: 2.83534 (Simulation time: 0 hr 8 min 50 sec) 

Warmup complete CPU 0 instructions: 50000001 cycles: 17634566 (Simulation time: 0 hr 8 min 50 sec) 

Heartbeat CPU 0 instructions: 60000002 cycles: 24450632 heartbeat IPC: 1.46712 cumulative IPC: 1.46712 (Simulation time: 0 hr 10 min 37 sec) 
Heartbeat CPU 0 instructions: 70000003 cycles: 31222756 heartbeat IPC: 1.47664 cumulative IPC: 1.47187 (Simulation time: 0 hr 12 min 25 sec) 
Heartbeat CPU 0 instructions: 80000002 cycles: 38009861 heartbeat IPC: 1.47338 cumulative IPC: 1.47237 (Simulation time: 0 hr 14 min 4 sec) 
Heartbeat CPU 0 instructions: 90000001 cycles: 44876291 heartbeat IPC: 1.45636 cumulative IPC: 1.46834 (Simulation time: 0 hr 15 min 34 sec) 
Heartbeat CPU 0 instructions: 100000002 cycles: 51621915 heartbeat IPC: 1.48244 cumulative IPC: 1.47114 (Simulation time: 0 hr 16 min 53 sec) 
Finished CPU 0 instructions: 50000001 cycles: 33987349 cumulative IPC: 1.47114 (Simulation time: 0 hr 16 min 53 sec) 

ChampSim completed all CPUs

Region of Interest Statistics

CPU 0 cumulative IPC: 1.47114 instructions: 50000001 cycles: 33987349
L1D TOTAL     ACCESS:   19875873  HIT:   18274247  MISS:    1601626
L1D LOAD      ACCESS:    6938490  HIT:    6246659  MISS:     691831
L1D RFO       ACCESS:    6285292  HIT:    5999790  MISS:     285502
L1D PREFETCH  ACCESS:    6652091  HIT:    6027798  MISS:     624293
L1D WRITEBACK ACCESS:          0  HIT:          0  MISS:          0
L1D PREFETCH  REQUESTED:    6985956  ISSUED:    6858233  USEFUL:     149541  USELESS:     474763
L1D AVERAGE MISS LATENCY: 24.0396 cycles
L1I TOTAL     ACCESS:   16438660  HIT:   13147670  MISS:    3290990
L1I LOAD      ACCESS:    9497800  HIT:    9451180  MISS:      46620
L1I RFO       ACCESS:          0  HIT:          0  MISS:          0
L1I PREFETCH  ACCESS:    6940860  HIT:    3696490  MISS:    3244370
L1I WRITEBACK ACCESS:          0  HIT:          0  MISS:          0
L1I PREFETCH  REQUESTED:    7370410  ISSUED:    7277681  USEFUL:    2767383  USELESS:     477017
L1I AVERAGE MISS LATENCY: 19.9118 cycles
L2C TOTAL     ACCESS:    6778121  HIT:    5878347  MISS:     899774
L2C LOAD      ACCESS:     700395  HIT:     563877  MISS:     136518
L2C RFO       ACCESS:     283704  HIT:     182443  MISS:     101261
L2C PREFETCH  ACCESS:    5234786  HIT:    4576839  MISS:     657947
L2C WRITEBACK ACCESS:     559236  HIT:     555188  MISS:       4048
L2C PREFETCH  REQUESTED:    4660806  ISSUED:    4654321  USEFUL:      12421  USELESS:     645275
L2C AVERAGE MISS LATENCY: 37.3484 cycles
LLC TOTAL     ACCESS:    2369191  HIT:    2337246  MISS:      31945
LLC LOAD      ACCESS:     136350  HIT:     132994  MISS:       3356
LLC RFO       ACCESS:     101261  HIT:      87313  MISS:      13948
LLC PREFETCH  ACCESS:    1963460  HIT:    1948975  MISS:      14485
LLC WRITEBACK ACCESS:     168120  HIT:     167964  MISS:        156
LLC PREFETCH  REQUESTED:          0  ISSUED:          0  USEFUL:       1227  USELESS:      13243
LLC AVERAGE MISS LATENCY: 185.846 cycles
Major fault: 0 Minor fault: 2483
CPU 0 L1D next line prefetcher final stats

DRAM Statistics
 CHANNEL 0
 RQ ROW_BUFFER_HIT:      10827  ROW_BUFFER_MISS:      20960
 DBUS_CONGESTED:      22307
 WQ ROW_BUFFER_HIT:       1487  ROW_BUFFER_MISS:      14377  FULL:          0

 AVG_CONGESTED_CYCLE: 6

CPU 0 Branch Prediction Accuracy: 99.8082% MPKI: 0.35064 Average ROB Occupancy at Mispredict: 189.006

Branch types
NOT_BRANCH: 40857515 81.715%
BRANCH_DIRECT_JUMP: 526635 1.05327%
BRANCH_INDIRECT: 205902 0.411804%
BRANCH_CONDITIONAL: 6184050 12.3681%
BRANCH_DIRECT_CALL: 938468 1.87694%
BRANCH_INDIRECT_CALL: 174486 0.348972%
BRANCH_RETURN: 1112960 2.22592%
BRANCH_OTHER: 0 0%

