Initialize SIGNATURE TABLE
ST_SET: 1
ST_WAY: 256
ST_TAG_BIT: 16
ST_TAG_MASK: ffff

Initialize PATTERN TABLE
PT_SET: 512
PT_WAY: 4
SIG_DELTA_BIT: 7
C_SIG_BIT: 4
C_DELTA_BIT: 4

Initialize PREFETCH FILTER
FILTER_SET: 1024

*** ChampSim Multicore Out-of-Order Simulator ***

Warmup Instructions: 50000000
Simulation Instructions: 50000000
Number of CPUs: 1
LLC sets: 2048
LLC ways: 16
Off-chip DRAM Size: 4096 MB Channels: 1 Width: 64-bit Data Rate: 3200 MT/s

CPU 0 runs /Users/brandon/Documents/CoursesWi22/CSE240C/Homework1/ChampSim/ipc1_public/server_014.champsimtrace.xz
L1I D-JOLT instruction prefetcher has been constructed!
CPU 0 L1D next line prefetcher
Heartbeat CPU 0 instructions: 10000003 cycles: 3519549 heartbeat IPC: 2.84127 cumulative IPC: 2.84127 (Simulation time: 0 hr 1 min 25 sec) 
Heartbeat CPU 0 instructions: 20000000 cycles: 7106389 heartbeat IPC: 2.78797 cumulative IPC: 2.81437 (Simulation time: 0 hr 3 min 7 sec) 
Heartbeat CPU 0 instructions: 30000001 cycles: 10647894 heartbeat IPC: 2.82366 cumulative IPC: 2.81746 (Simulation time: 0 hr 4 min 54 sec) 
Heartbeat CPU 0 instructions: 40000003 cycles: 14196116 heartbeat IPC: 2.81831 cumulative IPC: 2.81767 (Simulation time: 0 hr 6 min 45 sec) 
Heartbeat CPU 0 instructions: 50000000 cycles: 17744790 heartbeat IPC: 2.81795 cumulative IPC: 2.81773 (Simulation time: 0 hr 8 min 40 sec) 

Warmup complete CPU 0 instructions: 50000001 cycles: 17744791 (Simulation time: 0 hr 8 min 40 sec) 

Heartbeat CPU 0 instructions: 60000000 cycles: 24032269 heartbeat IPC: 1.59046 cumulative IPC: 1.59046 (Simulation time: 0 hr 10 min 38 sec) 
Heartbeat CPU 0 instructions: 70000003 cycles: 30323669 heartbeat IPC: 1.58947 cumulative IPC: 1.58997 (Simulation time: 0 hr 12 min 40 sec) 
*** Reached end of trace for Core: 0 Repeating trace: /Users/brandon/Documents/CoursesWi22/CSE240C/Homework1/ChampSim/ipc1_public/server_014.champsimtrace.xz
Heartbeat CPU 0 instructions: 80000001 cycles: 36897308 heartbeat IPC: 1.52123 cumulative IPC: 1.56637 (Simulation time: 0 hr 14 min 37 sec) 
Heartbeat CPU 0 instructions: 90000003 cycles: 44341241 heartbeat IPC: 1.34338 cumulative IPC: 1.50396 (Simulation time: 0 hr 16 min 11 sec) 
Heartbeat CPU 0 instructions: 100000001 cycles: 50823277 heartbeat IPC: 1.54272 cumulative IPC: 1.51156 (Simulation time: 0 hr 17 min 2 sec) 
Finished CPU 0 instructions: 50000000 cycles: 33078486 cumulative IPC: 1.51156 (Simulation time: 0 hr 17 min 2 sec) 

ChampSim completed all CPUs

Region of Interest Statistics

CPU 0 cumulative IPC: 1.51156 instructions: 50000000 cycles: 33078486
L1D TOTAL     ACCESS:   21622664  HIT:   21551801  MISS:      70863
L1D LOAD      ACCESS:    6671368  HIT:    6644435  MISS:      26933
L1D RFO       ACCESS:    8412756  HIT:    8380690  MISS:      32066
L1D PREFETCH  ACCESS:    6538540  HIT:    6526676  MISS:      11864
L1D WRITEBACK ACCESS:          0  HIT:          0  MISS:          0
L1D PREFETCH  REQUESTED:    6675747  ISSUED:    6566281  USEFUL:       3309  USELESS:       8555
L1D AVERAGE MISS LATENCY: 224.135 cycles
L1I TOTAL     ACCESS:   20735773  HIT:   16359836  MISS:    4375937
L1I LOAD      ACCESS:    9803568  HIT:    9776240  MISS:      27328
L1I RFO       ACCESS:          0  HIT:          0  MISS:          0
L1I PREFETCH  ACCESS:   10932205  HIT:    6583596  MISS:    4348609
L1I WRITEBACK ACCESS:          0  HIT:          0  MISS:          0
L1I PREFETCH  REQUESTED:   11587534  ISSUED:   11379689  USEFUL:    2813120  USELESS:    1535469
L1I AVERAGE MISS LATENCY: 14.8896 cycles
L2C TOTAL     ACCESS:    6286203  HIT:    6214557  MISS:      71646
L2C LOAD      ACCESS:      45030  HIT:      26367  MISS:      18663
L2C RFO       ACCESS:      32016  HIT:       1086  MISS:      30930
L2C PREFETCH  ACCESS:    6170787  HIT:    6148751  MISS:      22036
L2C WRITEBACK ACCESS:      38370  HIT:      38353  MISS:         17
L2C PREFETCH  REQUESTED:    4866276  ISSUED:    4864313  USEFUL:       1320  USELESS:      20590
L2C AVERAGE MISS LATENCY: 254.967 cycles
LLC TOTAL     ACCESS:    1034172  HIT:     968952  MISS:      65220
LLC LOAD      ACCESS:      17486  HIT:       5205  MISS:      12281
LLC RFO       ACCESS:      30930  HIT:       5236  MISS:      25694
LLC PREFETCH  ACCESS:     950918  HIT:     923774  MISS:      27144
LLC WRITEBACK ACCESS:      34838  HIT:      34737  MISS:        101
LLC PREFETCH  REQUESTED:          0  ISSUED:          0  USEFUL:       4596  USELESS:      23650
LLC AVERAGE MISS LATENCY: 311.476 cycles
Major fault: 0 Minor fault: 1917
CPU 0 L1D next line prefetcher final stats

DRAM Statistics
 CHANNEL 0
 RQ ROW_BUFFER_HIT:      28898  ROW_BUFFER_MISS:      36209
 DBUS_CONGESTED:      65039
 WQ ROW_BUFFER_HIT:       7980  ROW_BUFFER_MISS:      23836  FULL:          0

 AVG_CONGESTED_CYCLE: 6

CPU 0 Branch Prediction Accuracy: 99.7719% MPKI: 0.38824 Average ROB Occupancy at Mispredict: 156.419

Branch types
NOT_BRANCH: 41489014 82.978%
BRANCH_DIRECT_JUMP: 449417 0.898834%
BRANCH_INDIRECT: 2330 0.00466%
BRANCH_CONDITIONAL: 5470016 10.94%
BRANCH_DIRECT_CALL: 1172188 2.34438%
BRANCH_INDIRECT_CALL: 122383 0.244766%
BRANCH_RETURN: 1294554 2.58911%
BRANCH_OTHER: 0 0%

