Initialize SIGNATURE TABLE
ST_SET: 1
ST_WAY: 256
ST_TAG_BIT: 16
ST_TAG_MASK: ffff

Initialize PATTERN TABLE
PT_SET: 512
PT_WAY: 4
SIG_DELTA_BIT: 7
C_SIG_BIT: 4
C_DELTA_BIT: 4

Initialize PREFETCH FILTER
FILTER_SET: 1024

*** ChampSim Multicore Out-of-Order Simulator ***

Warmup Instructions: 50000000
Simulation Instructions: 50000000
Number of CPUs: 1
LLC sets: 2048
LLC ways: 16
Off-chip DRAM Size: 4096 MB Channels: 1 Width: 64-bit Data Rate: 3200 MT/s

CPU 0 runs /Users/brandon/Documents/CoursesWi22/CSE240C/Homework1/ChampSim/ipc1_public/server_019.champsimtrace.xz
L1I D-JOLT instruction prefetcher has been constructed!
CPU 0 L1D next line prefetcher
Heartbeat CPU 0 instructions: 10000002 cycles: 3622598 heartbeat IPC: 2.76045 cumulative IPC: 2.76045 (Simulation time: 0 hr 1 min 27 sec) 
Heartbeat CPU 0 instructions: 20000003 cycles: 7246701 heartbeat IPC: 2.7593 cumulative IPC: 2.75988 (Simulation time: 0 hr 3 min 9 sec) 
Heartbeat CPU 0 instructions: 30000002 cycles: 10869971 heartbeat IPC: 2.75994 cumulative IPC: 2.7599 (Simulation time: 0 hr 4 min 58 sec) 
Heartbeat CPU 0 instructions: 40000002 cycles: 14505308 heartbeat IPC: 2.75078 cumulative IPC: 2.75761 (Simulation time: 0 hr 6 min 51 sec) 
Heartbeat CPU 0 instructions: 50000001 cycles: 18128737 heartbeat IPC: 2.75982 cumulative IPC: 2.75805 (Simulation time: 0 hr 8 min 47 sec) 

Warmup complete CPU 0 instructions: 50000001 cycles: 18128737 (Simulation time: 0 hr 8 min 47 sec) 

Heartbeat CPU 0 instructions: 60000000 cycles: 37983022 heartbeat IPC: 0.50367 cumulative IPC: 0.50367 (Simulation time: 0 hr 11 min 32 sec) 
Heartbeat CPU 0 instructions: 70000002 cycles: 61561544 heartbeat IPC: 0.424115 cumulative IPC: 0.460481 (Simulation time: 0 hr 14 min 7 sec) 
Heartbeat CPU 0 instructions: 80000001 cycles: 82150647 heartbeat IPC: 0.485694 cumulative IPC: 0.46859 (Simulation time: 0 hr 16 min 13 sec) 
Heartbeat CPU 0 instructions: 90000002 cycles: 99730943 heartbeat IPC: 0.568819 cumulative IPC: 0.490183 (Simulation time: 0 hr 17 min 14 sec) 
Heartbeat CPU 0 instructions: 100000002 cycles: 117269712 heartbeat IPC: 0.570165 cumulative IPC: 0.504332 (Simulation time: 0 hr 17 min 54 sec) 
Finished CPU 0 instructions: 50000001 cycles: 99140975 cumulative IPC: 0.504332 (Simulation time: 0 hr 17 min 54 sec) 

ChampSim completed all CPUs

Region of Interest Statistics

CPU 0 cumulative IPC: 0.504332 instructions: 50000001 cycles: 99140975
L1D TOTAL     ACCESS:   18300404  HIT:   16076827  MISS:    2223577
L1D LOAD      ACCESS:    6976236  HIT:    6222333  MISS:     753903
L1D RFO       ACCESS:    5512444  HIT:    4610535  MISS:     901909
L1D PREFETCH  ACCESS:    5811724  HIT:    5243959  MISS:     567765
L1D WRITEBACK ACCESS:          0  HIT:          0  MISS:          0
L1D PREFETCH  REQUESTED:    7013298  ISSUED:    6828252  USEFUL:     198482  USELESS:     369192
L1D AVERAGE MISS LATENCY: 188.663 cycles
L1I TOTAL     ACCESS:   17857559  HIT:   14639816  MISS:    3217743
L1I LOAD      ACCESS:    9882969  HIT:    9841905  MISS:      41064
L1I RFO       ACCESS:          0  HIT:          0  MISS:          0
L1I PREFETCH  ACCESS:    7974590  HIT:    4797911  MISS:    3176679
L1I WRITEBACK ACCESS:          0  HIT:          0  MISS:          0
L1I PREFETCH  REQUESTED:    8631864  ISSUED:    8576591  USEFUL:    2449526  USELESS:     727084
L1I AVERAGE MISS LATENCY: 18.8747 cycles
L2C TOTAL     ACCESS:    8031380  HIT:    6135836  MISS:    1895544
L2C LOAD      ACCESS:     585245  HIT:     249635  MISS:     335610
L2C RFO       ACCESS:     901437  HIT:      18218  MISS:     883219
L2C PREFETCH  ACCESS:    5370076  HIT:    4695445  MISS:     674631
L2C WRITEBACK ACCESS:    1174622  HIT:    1172538  MISS:       2084
L2C PREFETCH  REQUESTED:    4968295  ISSUED:    4964020  USEFUL:      21477  USELESS:     651607
L2C AVERAGE MISS LATENCY: 225.889 cycles
LLC TOTAL     ACCESS:    4373327  HIT:    2750427  MISS:    1622900
LLC LOAD      ACCESS:     335534  HIT:     168101  MISS:     167433
LLC RFO       ACCESS:     883217  HIT:     114904  MISS:     768313
LLC PREFETCH  ACCESS:    2043395  HIT:    1358237  MISS:     685158
LLC WRITEBACK ACCESS:    1111181  HIT:    1109185  MISS:       1996
LLC PREFETCH  REQUESTED:          0  ISSUED:          0  USEFUL:      53888  USELESS:     629949
LLC AVERAGE MISS LATENCY: 280.796 cycles
Major fault: 0 Minor fault: 25693
CPU 0 L1D next line prefetcher final stats

DRAM Statistics
 CHANNEL 0
 RQ ROW_BUFFER_HIT:     397940  ROW_BUFFER_MISS:    1222721
 DBUS_CONGESTED:    1595630
 WQ ROW_BUFFER_HIT:     260395  ROW_BUFFER_MISS:     679777  FULL:          0

 AVG_CONGESTED_CYCLE: 6

CPU 0 Branch Prediction Accuracy: 99.2186% MPKI: 1.32192 Average ROB Occupancy at Mispredict: 179.49

Branch types
NOT_BRANCH: 41540785 83.0816%
BRANCH_DIRECT_JUMP: 462384 0.924768%
BRANCH_INDIRECT: 45460 0.09092%
BRANCH_CONDITIONAL: 6209281 12.4186%
BRANCH_DIRECT_CALL: 666241 1.33248%
BRANCH_INDIRECT_CALL: 204728 0.409456%
BRANCH_RETURN: 870978 1.74196%
BRANCH_OTHER: 0 0%

