Initialize SIGNATURE TABLE
ST_SET: 1
ST_WAY: 256
ST_TAG_BIT: 16
ST_TAG_MASK: ffff

Initialize PATTERN TABLE
PT_SET: 512
PT_WAY: 4
SIG_DELTA_BIT: 7
C_SIG_BIT: 4
C_DELTA_BIT: 4

Initialize PREFETCH FILTER
FILTER_SET: 1024

*** ChampSim Multicore Out-of-Order Simulator ***

Warmup Instructions: 50000000
Simulation Instructions: 50000000
Number of CPUs: 1
LLC sets: 2048
LLC ways: 16
Off-chip DRAM Size: 4096 MB Channels: 1 Width: 64-bit Data Rate: 3200 MT/s

CPU 0 runs /Users/brandon/Documents/CoursesWi22/CSE240C/Homework1/ChampSim/ipc1_public/spec_perlbench_001.champsimtrace.xz
L1I D-JOLT instruction prefetcher has been constructed!
CPU 0 L1D next line prefetcher
Heartbeat CPU 0 instructions: 10000000 cycles: 3276085 heartbeat IPC: 3.05242 cumulative IPC: 3.05242 (Simulation time: 0 hr 1 min 34 sec) 
Heartbeat CPU 0 instructions: 20000000 cycles: 6541519 heartbeat IPC: 3.06238 cumulative IPC: 3.05739 (Simulation time: 0 hr 3 min 13 sec) 
Heartbeat CPU 0 instructions: 30000002 cycles: 9859738 heartbeat IPC: 3.01367 cumulative IPC: 3.04268 (Simulation time: 0 hr 4 min 56 sec) 
Heartbeat CPU 0 instructions: 40000002 cycles: 13115959 heartbeat IPC: 3.07104 cumulative IPC: 3.04972 (Simulation time: 0 hr 6 min 34 sec) 
Heartbeat CPU 0 instructions: 50000001 cycles: 16390377 heartbeat IPC: 3.05398 cumulative IPC: 3.05057 (Simulation time: 0 hr 8 min 7 sec) 

Warmup complete CPU 0 instructions: 50000001 cycles: 16390377 (Simulation time: 0 hr 8 min 7 sec) 

Heartbeat CPU 0 instructions: 60000001 cycles: 24693049 heartbeat IPC: 1.20443 cumulative IPC: 1.20443 (Simulation time: 0 hr 9 min 36 sec) 
Heartbeat CPU 0 instructions: 70000003 cycles: 32812499 heartbeat IPC: 1.23161 cumulative IPC: 1.21787 (Simulation time: 0 hr 11 min 11 sec) 
Heartbeat CPU 0 instructions: 80000000 cycles: 41253209 heartbeat IPC: 1.18473 cumulative IPC: 1.20662 (Simulation time: 0 hr 12 min 37 sec) 
Heartbeat CPU 0 instructions: 90000000 cycles: 47016988 heartbeat IPC: 1.73497 cumulative IPC: 1.30605 (Simulation time: 0 hr 13 min 39 sec) 
Heartbeat CPU 0 instructions: 100000002 cycles: 52921904 heartbeat IPC: 1.6935 cumulative IPC: 1.36868 (Simulation time: 0 hr 14 min 39 sec) 
Finished CPU 0 instructions: 50000001 cycles: 36531527 cumulative IPC: 1.36868 (Simulation time: 0 hr 14 min 39 sec) 

ChampSim completed all CPUs

Region of Interest Statistics

CPU 0 cumulative IPC: 1.36868 instructions: 50000001 cycles: 36531527
L1D TOTAL     ACCESS:   20678371  HIT:   20263299  MISS:     415072
L1D LOAD      ACCESS:    7169196  HIT:    6955449  MISS:     213747
L1D RFO       ACCESS:    6542125  HIT:    6523625  MISS:      18500
L1D PREFETCH  ACCESS:    6967050  HIT:    6784225  MISS:     182825
L1D WRITEBACK ACCESS:          0  HIT:          0  MISS:          0
L1D PREFETCH  REQUESTED:    7184928  ISSUED:    7068414  USEFUL:      55158  USELESS:     127662
L1D AVERAGE MISS LATENCY: 59.6957 cycles
L1I TOTAL     ACCESS:   16901305  HIT:   15510105  MISS:    1391200
L1I LOAD      ACCESS:    9180494  HIT:    9134881  MISS:      45613
L1I RFO       ACCESS:          0  HIT:          0  MISS:          0
L1I PREFETCH  ACCESS:    7720811  HIT:    6375224  MISS:    1345587
L1I WRITEBACK ACCESS:          0  HIT:          0  MISS:          0
L1I PREFETCH  REQUESTED:    8059840  ISSUED:    7855258  USEFUL:     582328  USELESS:     763289
L1I AVERAGE MISS LATENCY: 16.3398 cycles
L2C TOTAL     ACCESS:    2558497  HIT:    2386201  MISS:     172296
L2C LOAD      ACCESS:     250613  HIT:     169672  MISS:      80941
L2C RFO       ACCESS:      18268  HIT:      12651  MISS:       5617
L2C PREFETCH  ACCESS:    2210677  HIT:    2125419  MISS:      85258
L2C WRITEBACK ACCESS:      78939  HIT:      78459  MISS:        480
L2C PREFETCH  REQUESTED:    1389414  ISSUED:    1389327  USEFUL:       6931  USELESS:      78365
L2C AVERAGE MISS LATENCY: 118.7 cycles
LLC TOTAL     ACCESS:     440359  HIT:     295452  MISS:     144907
LLC LOAD      ACCESS:      80939  HIT:      30802  MISS:      50137
LLC RFO       ACCESS:       5617  HIT:       2602  MISS:       3015
LLC PREFETCH  ACCESS:     327439  HIT:     236164  MISS:      91275
LLC WRITEBACK ACCESS:      26364  HIT:      25884  MISS:        480
LLC PREFETCH  REQUESTED:          0  ISSUED:          0  USEFUL:      12965  USELESS:      78861
LLC AVERAGE MISS LATENCY: 160.051 cycles
Major fault: 0 Minor fault: 6365
CPU 0 L1D next line prefetcher final stats

DRAM Statistics
 CHANNEL 0
 RQ ROW_BUFFER_HIT:      32923  ROW_BUFFER_MISS:     111501
 DBUS_CONGESTED:      56033
 WQ ROW_BUFFER_HIT:       4304  ROW_BUFFER_MISS:      13077  FULL:          0

 AVG_CONGESTED_CYCLE: 4

CPU 0 Branch Prediction Accuracy: 98.7418% MPKI: 2.47758 Average ROB Occupancy at Mispredict: 80.1146

Branch types
NOT_BRANCH: 40154100 80.3082%
BRANCH_DIRECT_JUMP: 817094 1.63419%
BRANCH_INDIRECT: 303787 0.607574%
BRANCH_CONDITIONAL: 7492103 14.9842%
BRANCH_DIRECT_CALL: 471777 0.943554%
BRANCH_INDIRECT_CALL: 144546 0.289092%
BRANCH_RETURN: 616324 1.23265%
BRANCH_OTHER: 0 0%

