Initialize SIGNATURE TABLE
ST_SET: 1
ST_WAY: 256
ST_TAG_BIT: 16
ST_TAG_MASK: ffff

Initialize PATTERN TABLE
PT_SET: 512
PT_WAY: 4
SIG_DELTA_BIT: 7
C_SIG_BIT: 4
C_DELTA_BIT: 4

Initialize PREFETCH FILTER
FILTER_SET: 1024

*** ChampSim Multicore Out-of-Order Simulator ***

Warmup Instructions: 50000000
Simulation Instructions: 50000000
Number of CPUs: 1
LLC sets: 2048
LLC ways: 16
Off-chip DRAM Size: 4096 MB Channels: 1 Width: 64-bit Data Rate: 3200 MT/s

CPU 0 runs /Users/brandon/Documents/CoursesWi22/CSE240C/Homework1/ChampSim/ipc1_public/client_007.champsimtrace.xz
L1I D-JOLT instruction prefetcher has been constructed!
CPU 0 L1D next line prefetcher
Heartbeat CPU 0 instructions: 10000001 cycles: 3642237 heartbeat IPC: 2.74557 cumulative IPC: 2.74557 (Simulation time: 0 hr 1 min 24 sec) 
Heartbeat CPU 0 instructions: 20000003 cycles: 7034335 heartbeat IPC: 2.94803 cumulative IPC: 2.8432 (Simulation time: 0 hr 3 min 8 sec) 
Heartbeat CPU 0 instructions: 30000000 cycles: 10906758 heartbeat IPC: 2.58236 cumulative IPC: 2.75059 (Simulation time: 0 hr 5 min 6 sec) 
Heartbeat CPU 0 instructions: 40000003 cycles: 15066602 heartbeat IPC: 2.40394 cumulative IPC: 2.65488 (Simulation time: 0 hr 6 min 59 sec) 
Heartbeat CPU 0 instructions: 50000002 cycles: 18471702 heartbeat IPC: 2.93677 cumulative IPC: 2.70684 (Simulation time: 0 hr 8 min 41 sec) 

Warmup complete CPU 0 instructions: 50000002 cycles: 18471702 (Simulation time: 0 hr 8 min 41 sec) 

Heartbeat CPU 0 instructions: 60000003 cycles: 25362308 heartbeat IPC: 1.45125 cumulative IPC: 1.45125 (Simulation time: 0 hr 10 min 22 sec) 
Heartbeat CPU 0 instructions: 70000003 cycles: 34235362 heartbeat IPC: 1.12701 cumulative IPC: 1.26874 (Simulation time: 0 hr 12 min 10 sec) 
Heartbeat CPU 0 instructions: 80000002 cycles: 39570309 heartbeat IPC: 1.87443 cumulative IPC: 1.42189 (Simulation time: 0 hr 13 min 19 sec) 
Heartbeat CPU 0 instructions: 90000002 cycles: 47188945 heartbeat IPC: 1.31257 cumulative IPC: 1.39289 (Simulation time: 0 hr 14 min 57 sec) 
Heartbeat CPU 0 instructions: 100000002 cycles: 56103512 heartbeat IPC: 1.12176 cumulative IPC: 1.32866 (Simulation time: 0 hr 16 min 9 sec) 
Finished CPU 0 instructions: 50000000 cycles: 37631810 cumulative IPC: 1.32866 (Simulation time: 0 hr 16 min 9 sec) 

ChampSim completed all CPUs

Region of Interest Statistics

CPU 0 cumulative IPC: 1.32866 instructions: 50000000 cycles: 37631810
L1D TOTAL     ACCESS:   21196557  HIT:   20027457  MISS:    1169100
L1D LOAD      ACCESS:    8368855  HIT:    7829833  MISS:     539022
L1D RFO       ACCESS:    4868861  HIT:    4777794  MISS:      91067
L1D PREFETCH  ACCESS:    7958841  HIT:    7419830  MISS:     539011
L1D WRITEBACK ACCESS:          0  HIT:          0  MISS:          0
L1D PREFETCH  REQUESTED:    8420862  ISSUED:    8177178  USEFUL:     158495  USELESS:     380531
L1D AVERAGE MISS LATENCY: 34.5244 cycles
L1I TOTAL     ACCESS:   12863751  HIT:   11696194  MISS:    1167557
L1I LOAD      ACCESS:    9120025  HIT:    9068388  MISS:      51637
L1I RFO       ACCESS:          0  HIT:          0  MISS:          0
L1I PREFETCH  ACCESS:    3743726  HIT:    2627806  MISS:    1115920
L1I WRITEBACK ACCESS:          0  HIT:          0  MISS:          0
L1I PREFETCH  REQUESTED:    3886855  ISSUED:    3835384  USEFUL:     847846  USELESS:     268102
L1I AVERAGE MISS LATENCY: 16.4386 cycles
L2C TOTAL     ACCESS:    3505282  HIT:    3297956  MISS:     207326
L2C LOAD      ACCESS:     561808  HIT:     491332  MISS:      70476
L2C RFO       ACCESS:      89502  HIT:      47812  MISS:      41690
L2C PREFETCH  ACCESS:    2526302  HIT:    2431338  MISS:      94964
L2C WRITEBACK ACCESS:     327670  HIT:     327474  MISS:        196
L2C PREFETCH  REQUESTED:    2480521  ISSUED:    2473850  USEFUL:      10147  USELESS:      84505
L2C AVERAGE MISS LATENCY: 124.485 cycles
LLC TOTAL     ACCESS:     900512  HIT:     731985  MISS:     168527
LLC LOAD      ACCESS:      70393  HIT:      35095  MISS:      35298
LLC RFO       ACCESS:      41690  HIT:       7175  MISS:      34515
LLC PREFETCH  ACCESS:     713613  HIT:     615208  MISS:      98405
LLC WRITEBACK ACCESS:      74816  HIT:      74507  MISS:        309
LLC PREFETCH  REQUESTED:          0  ISSUED:          0  USEFUL:      18834  USELESS:      80618
LLC AVERAGE MISS LATENCY: 182.245 cycles
Major fault: 0 Minor fault: 4412
CPU 0 L1D next line prefetcher final stats

DRAM Statistics
 CHANNEL 0
 RQ ROW_BUFFER_HIT:      34824  ROW_BUFFER_MISS:     133386
 DBUS_CONGESTED:      93387
 WQ ROW_BUFFER_HIT:      12752  ROW_BUFFER_MISS:      44913  FULL:          0

 AVG_CONGESTED_CYCLE: 5

CPU 0 Branch Prediction Accuracy: 98.8607% MPKI: 1.8623 Average ROB Occupancy at Mispredict: 113.086

Branch types
NOT_BRANCH: 41826773 83.6535%
BRANCH_DIRECT_JUMP: 735330 1.47066%
BRANCH_INDIRECT: 269194 0.538388%
BRANCH_CONDITIONAL: 5957947 11.9159%
BRANCH_DIRECT_CALL: 368758 0.737516%
BRANCH_INDIRECT_CALL: 226975 0.45395%
BRANCH_RETURN: 614696 1.22939%
BRANCH_OTHER: 0 0%

