Initialize SIGNATURE TABLE
ST_SET: 1
ST_WAY: 256
ST_TAG_BIT: 16
ST_TAG_MASK: ffff

Initialize PATTERN TABLE
PT_SET: 512
PT_WAY: 4
SIG_DELTA_BIT: 7
C_SIG_BIT: 4
C_DELTA_BIT: 4

Initialize PREFETCH FILTER
FILTER_SET: 1024

*** ChampSim Multicore Out-of-Order Simulator ***

Warmup Instructions: 50000000
Simulation Instructions: 50000000
Number of CPUs: 1
LLC sets: 2048
LLC ways: 16
Off-chip DRAM Size: 4096 MB Channels: 1 Width: 64-bit Data Rate: 3200 MT/s

CPU 0 runs /Users/brandon/Documents/CoursesWi22/CSE240C/Homework1/ChampSim/ipc1_public/client_003.champsimtrace.xz
L1I D-JOLT instruction prefetcher has been constructed!
CPU 0 L1D next line prefetcher
Heartbeat CPU 0 instructions: 10000000 cycles: 3478525 heartbeat IPC: 2.87478 cumulative IPC: 2.87478 (Simulation time: 0 hr 1 min 30 sec) 
Heartbeat CPU 0 instructions: 20000002 cycles: 6932857 heartbeat IPC: 2.89492 cumulative IPC: 2.88481 (Simulation time: 0 hr 3 min 28 sec) 
Heartbeat CPU 0 instructions: 30000003 cycles: 10493771 heartbeat IPC: 2.80827 cumulative IPC: 2.85884 (Simulation time: 0 hr 5 min 24 sec) 
Heartbeat CPU 0 instructions: 40000001 cycles: 14110243 heartbeat IPC: 2.76513 cumulative IPC: 2.83482 (Simulation time: 0 hr 7 min 19 sec) 
Heartbeat CPU 0 instructions: 50000003 cycles: 17655271 heartbeat IPC: 2.82085 cumulative IPC: 2.83202 (Simulation time: 0 hr 9 min 12 sec) 

Warmup complete CPU 0 instructions: 50000003 cycles: 17655271 (Simulation time: 0 hr 9 min 12 sec) 

Heartbeat CPU 0 instructions: 60000002 cycles: 24059938 heartbeat IPC: 1.56136 cumulative IPC: 1.56136 (Simulation time: 0 hr 10 min 45 sec) 
Heartbeat CPU 0 instructions: 70000001 cycles: 30159149 heartbeat IPC: 1.63956 cumulative IPC: 1.5995 (Simulation time: 0 hr 12 min 22 sec) 
Heartbeat CPU 0 instructions: 80000003 cycles: 37233212 heartbeat IPC: 1.41362 cumulative IPC: 1.53234 (Simulation time: 0 hr 13 min 52 sec) 
Heartbeat CPU 0 instructions: 90000000 cycles: 46296274 heartbeat IPC: 1.10338 cumulative IPC: 1.3966 (Simulation time: 0 hr 14 min 59 sec) 
Heartbeat CPU 0 instructions: 100000003 cycles: 57172321 heartbeat IPC: 0.919452 cumulative IPC: 1.26528 (Simulation time: 0 hr 16 min 10 sec) 
Finished CPU 0 instructions: 50000000 cycles: 39517050 cumulative IPC: 1.26528 (Simulation time: 0 hr 16 min 10 sec) 

ChampSim completed all CPUs

Region of Interest Statistics

CPU 0 cumulative IPC: 1.26528 instructions: 50000000 cycles: 39517050
L1D TOTAL     ACCESS:   17650129  HIT:   17154200  MISS:     495929
L1D LOAD      ACCESS:    6044075  HIT:    5918556  MISS:     125519
L1D RFO       ACCESS:    5946984  HIT:    5712561  MISS:     234423
L1D PREFETCH  ACCESS:    5659070  HIT:    5523083  MISS:     135987
L1D WRITEBACK ACCESS:          0  HIT:          0  MISS:          0
L1D PREFETCH  REQUESTED:    6085554  ISSUED:    5944535  USEFUL:      68117  USELESS:      67919
L1D AVERAGE MISS LATENCY: 122.741 cycles
L1I TOTAL     ACCESS:   15190961  HIT:   13493834  MISS:    1697127
L1I LOAD      ACCESS:    9488434  HIT:    9381436  MISS:     106998
L1I RFO       ACCESS:          0  HIT:          0  MISS:          0
L1I PREFETCH  ACCESS:    5702527  HIT:    4112398  MISS:    1590129
L1I WRITEBACK ACCESS:          0  HIT:          0  MISS:          0
L1I PREFETCH  REQUESTED:    5983999  ISSUED:    5857023  USEFUL:     687462  USELESS:     902740
L1I AVERAGE MISS LATENCY: 17.049 cycles
L2C TOTAL     ACCESS:    3143597  HIT:    2736076  MISS:     407521
L2C LOAD      ACCESS:     186377  HIT:     131723  MISS:      54654
L2C RFO       ACCESS:     232313  HIT:      24638  MISS:     207675
L2C PREFETCH  ACCESS:    2455626  HIT:    2311806  MISS:     143820
L2C WRITEBACK ACCESS:     269281  HIT:     267909  MISS:       1372
L2C PREFETCH  REQUESTED:    1534563  ISSUED:    1534438  USEFUL:      16528  USELESS:     127090
L2C AVERAGE MISS LATENCY: 161.314 cycles
LLC TOTAL     ACCESS:     993559  HIT:     704751  MISS:     288808
LLC LOAD      ACCESS:      54617  HIT:      38260  MISS:      16357
LLC RFO       ACCESS:     207663  HIT:      34888  MISS:     172775
LLC PREFETCH  ACCESS:     505563  HIT:     406252  MISS:      99311
LLC WRITEBACK ACCESS:     225716  HIT:     225351  MISS:        365
LLC PREFETCH  REQUESTED:          0  ISSUED:          0  USEFUL:      12554  USELESS:      86652
LLC AVERAGE MISS LATENCY: 226.319 cycles
Major fault: 0 Minor fault: 5045
CPU 0 L1D next line prefetcher final stats

DRAM Statistics
 CHANNEL 0
 RQ ROW_BUFFER_HIT:      99411  ROW_BUFFER_MISS:     189030
 DBUS_CONGESTED:     254409
 WQ ROW_BUFFER_HIT:      60611  ROW_BUFFER_MISS:     118474  FULL:          0

 AVG_CONGESTED_CYCLE: 6

CPU 0 Branch Prediction Accuracy: 98.6631% MPKI: 2.66884 Average ROB Occupancy at Mispredict: 76.0421

Branch types
NOT_BRANCH: 40018773 80.0375%
BRANCH_DIRECT_JUMP: 370861 0.741722%
BRANCH_INDIRECT: 83252 0.166504%
BRANCH_CONDITIONAL: 7877435 15.7549%
BRANCH_DIRECT_CALL: 722315 1.44463%
BRANCH_INDIRECT_CALL: 101901 0.203802%
BRANCH_RETURN: 825355 1.65071%
BRANCH_OTHER: 0 0%

