Initialize SIGNATURE TABLE
ST_SET: 1
ST_WAY: 256
ST_TAG_BIT: 16
ST_TAG_MASK: ffff

Initialize PATTERN TABLE
PT_SET: 512
PT_WAY: 4
SIG_DELTA_BIT: 7
C_SIG_BIT: 4
C_DELTA_BIT: 4

Initialize PREFETCH FILTER
FILTER_SET: 1024

*** ChampSim Multicore Out-of-Order Simulator ***

Warmup Instructions: 50000000
Simulation Instructions: 50000000
Number of CPUs: 1
LLC sets: 2048
LLC ways: 16
Off-chip DRAM Size: 4096 MB Channels: 1 Width: 64-bit Data Rate: 3200 MT/s

CPU 0 runs /Users/brandon/Documents/CoursesWi22/CSE240C/Homework1/ChampSim/ipc1_public/client_006.champsimtrace.xz
L1I D-JOLT instruction prefetcher has been constructed!
CPU 0 L1D next line prefetcher
Heartbeat CPU 0 instructions: 10000003 cycles: 4267498 heartbeat IPC: 2.34329 cumulative IPC: 2.34329 (Simulation time: 0 hr 1 min 38 sec) 
Heartbeat CPU 0 instructions: 20000000 cycles: 8307710 heartbeat IPC: 2.47512 cumulative IPC: 2.4074 (Simulation time: 0 hr 3 min 40 sec) 
Heartbeat CPU 0 instructions: 30000003 cycles: 11371910 heartbeat IPC: 3.2635 cumulative IPC: 2.63808 (Simulation time: 0 hr 5 min 15 sec) 
Heartbeat CPU 0 instructions: 40000000 cycles: 14717590 heartbeat IPC: 2.98893 cumulative IPC: 2.71784 (Simulation time: 0 hr 6 min 54 sec) 
Heartbeat CPU 0 instructions: 50000003 cycles: 18822561 heartbeat IPC: 2.43607 cumulative IPC: 2.65639 (Simulation time: 0 hr 8 min 45 sec) 

Warmup complete CPU 0 instructions: 50000003 cycles: 18822561 (Simulation time: 0 hr 8 min 45 sec) 

Heartbeat CPU 0 instructions: 60000001 cycles: 26704042 heartbeat IPC: 1.2688 cumulative IPC: 1.2688 (Simulation time: 0 hr 10 min 8 sec) 
Heartbeat CPU 0 instructions: 70000000 cycles: 36424357 heartbeat IPC: 1.02877 cumulative IPC: 1.13625 (Simulation time: 0 hr 11 min 37 sec) 
Heartbeat CPU 0 instructions: 80000002 cycles: 44746897 heartbeat IPC: 1.20156 cumulative IPC: 1.15721 (Simulation time: 0 hr 12 min 59 sec) 
Heartbeat CPU 0 instructions: 90000003 cycles: 52579837 heartbeat IPC: 1.27666 cumulative IPC: 1.18493 (Simulation time: 0 hr 14 min 12 sec) 
Heartbeat CPU 0 instructions: 100000001 cycles: 60764223 heartbeat IPC: 1.22184 cumulative IPC: 1.19213 (Simulation time: 0 hr 15 min 31 sec) 
Finished CPU 0 instructions: 50000002 cycles: 41941663 cumulative IPC: 1.19213 (Simulation time: 0 hr 15 min 31 sec) 

ChampSim completed all CPUs

Region of Interest Statistics

CPU 0 cumulative IPC: 1.19213 instructions: 50000002 cycles: 41941663
L1D TOTAL     ACCESS:   16593826  HIT:   15866651  MISS:     727175
L1D LOAD      ACCESS:    6366241  HIT:    5959216  MISS:     407025
L1D RFO       ACCESS:    4332754  HIT:    4290154  MISS:      42600
L1D PREFETCH  ACCESS:    5894831  HIT:    5617281  MISS:     277550
L1D WRITEBACK ACCESS:          0  HIT:          0  MISS:          0
L1D PREFETCH  REQUESTED:    6408158  ISSUED:    6227162  USEFUL:     116531  USELESS:     160893
L1D AVERAGE MISS LATENCY: 82.5546 cycles
L1I TOTAL     ACCESS:   13694433  HIT:   12378352  MISS:    1316081
L1I LOAD      ACCESS:    8484394  HIT:    8468626  MISS:      15768
L1I RFO       ACCESS:          0  HIT:          0  MISS:          0
L1I PREFETCH  ACCESS:    5210039  HIT:    3909726  MISS:    1300313
L1I WRITEBACK ACCESS:          0  HIT:          0  MISS:          0
L1I PREFETCH  REQUESTED:    5491228  ISSUED:    5366612  USEFUL:     850876  USELESS:     449326
L1I AVERAGE MISS LATENCY: 21.6404 cycles
L2C TOTAL     ACCESS:    2884887  HIT:    2331353  MISS:     553534
L2C LOAD      ACCESS:     354181  HIT:     114775  MISS:     239406
L2C RFO       ACCESS:      42327  HIT:      12264  MISS:      30063
L2C PREFETCH  ACCESS:    2312409  HIT:    2029141  MISS:     283268
L2C WRITEBACK ACCESS:     175970  HIT:     175173  MISS:        797
L2C PREFETCH  REQUESTED:    3059687  ISSUED:    3030789  USEFUL:      11381  USELESS:     272912
L2C AVERAGE MISS LATENCY: 116.624 cycles
LLC TOTAL     ACCESS:    1489896  HIT:    1090005  MISS:     399891
LLC LOAD      ACCESS:     230081  HIT:     134721  MISS:      95360
LLC RFO       ACCESS:      30063  HIT:       5263  MISS:      24800
LLC PREFETCH  ACCESS:    1095176  HIT:     816026  MISS:     279150
LLC WRITEBACK ACCESS:     134576  HIT:     133995  MISS:        581
LLC PREFETCH  REQUESTED:          0  ISSUED:          0  USEFUL:      42973  USELESS:     239739
LLC AVERAGE MISS LATENCY: 200.387 cycles
Major fault: 0 Minor fault: 10537
CPU 0 L1D next line prefetcher final stats

DRAM Statistics
 CHANNEL 0
 RQ ROW_BUFFER_HIT:     102220  ROW_BUFFER_MISS:     297077
 DBUS_CONGESTED:     230429
 WQ ROW_BUFFER_HIT:      21821  ROW_BUFFER_MISS:      93629  FULL:          0

 AVG_CONGESTED_CYCLE: 5

CPU 0 Branch Prediction Accuracy: 98.1683% MPKI: 3.13642 Average ROB Occupancy at Mispredict: 87.6434

Branch types
NOT_BRANCH: 41438063 82.8761%
BRANCH_DIRECT_JUMP: 413829 0.827658%
BRANCH_INDIRECT: 47058 0.094116%
BRANCH_CONDITIONAL: 6843835 13.6877%
BRANCH_DIRECT_CALL: 536885 1.07377%
BRANCH_INDIRECT_CALL: 90642 0.181284%
BRANCH_RETURN: 629329 1.25866%
BRANCH_OTHER: 0 0%

