Initialize SIGNATURE TABLE
ST_SET: 1
ST_WAY: 256
ST_TAG_BIT: 16
ST_TAG_MASK: ffff

Initialize PATTERN TABLE
PT_SET: 512
PT_WAY: 4
SIG_DELTA_BIT: 7
C_SIG_BIT: 4
C_DELTA_BIT: 4

Initialize PREFETCH FILTER
FILTER_SET: 1024

*** ChampSim Multicore Out-of-Order Simulator ***

Warmup Instructions: 50000000
Simulation Instructions: 50000000
Number of CPUs: 1
LLC sets: 2048
LLC ways: 16
Off-chip DRAM Size: 4096 MB Channels: 1 Width: 64-bit Data Rate: 3200 MT/s

CPU 0 runs /Users/brandon/Documents/CoursesWi22/CSE240C/Homework1/ChampSim/ipc1_public/client_004.champsimtrace.xz
L1I D-JOLT instruction prefetcher has been constructed!
CPU 0 L1D next line prefetcher
Heartbeat CPU 0 instructions: 10000000 cycles: 3592597 heartbeat IPC: 2.7835 cumulative IPC: 2.7835 (Simulation time: 0 hr 1 min 27 sec) 
Heartbeat CPU 0 instructions: 20000003 cycles: 7057064 heartbeat IPC: 2.88645 cumulative IPC: 2.83404 (Simulation time: 0 hr 3 min 14 sec) 
Heartbeat CPU 0 instructions: 30000000 cycles: 10647742 heartbeat IPC: 2.78499 cumulative IPC: 2.8175 (Simulation time: 0 hr 4 min 59 sec) 
Heartbeat CPU 0 instructions: 40000003 cycles: 14328180 heartbeat IPC: 2.71707 cumulative IPC: 2.7917 (Simulation time: 0 hr 6 min 46 sec) 
Heartbeat CPU 0 instructions: 50000001 cycles: 17847895 heartbeat IPC: 2.84114 cumulative IPC: 2.80145 (Simulation time: 0 hr 8 min 35 sec) 

Warmup complete CPU 0 instructions: 50000001 cycles: 17847895 (Simulation time: 0 hr 8 min 35 sec) 

Heartbeat CPU 0 instructions: 60000002 cycles: 25903913 heartbeat IPC: 1.24131 cumulative IPC: 1.24131 (Simulation time: 0 hr 9 min 55 sec) 
Heartbeat CPU 0 instructions: 70000001 cycles: 33960934 heartbeat IPC: 1.24115 cumulative IPC: 1.24123 (Simulation time: 0 hr 11 min 20 sec) 
Heartbeat CPU 0 instructions: 80000002 cycles: 43014925 heartbeat IPC: 1.10449 cumulative IPC: 1.19204 (Simulation time: 0 hr 12 min 40 sec) 
Heartbeat CPU 0 instructions: 90000000 cycles: 51370309 heartbeat IPC: 1.19683 cumulative IPC: 1.19323 (Simulation time: 0 hr 14 min 1 sec) 
Heartbeat CPU 0 instructions: 100000001 cycles: 59551288 heartbeat IPC: 1.22235 cumulative IPC: 1.19894 (Simulation time: 0 hr 15 min 23 sec) 
Finished CPU 0 instructions: 50000000 cycles: 41703393 cumulative IPC: 1.19894 (Simulation time: 0 hr 15 min 23 sec) 

ChampSim completed all CPUs

Region of Interest Statistics

CPU 0 cumulative IPC: 1.19894 instructions: 50000000 cycles: 41703393
L1D TOTAL     ACCESS:   21971849  HIT:   21082858  MISS:     888991
L1D LOAD      ACCESS:    8726291  HIT:    8330440  MISS:     395851
L1D RFO       ACCESS:    4812143  HIT:    4690760  MISS:     121383
L1D PREFETCH  ACCESS:    8433415  HIT:    8061658  MISS:     371757
L1D WRITEBACK ACCESS:          0  HIT:          0  MISS:          0
L1D PREFETCH  REQUESTED:    8765594  ISSUED:    8606112  USEFUL:     133244  USELESS:     238521
L1D AVERAGE MISS LATENCY: 29.5258 cycles
L1I TOTAL     ACCESS:   13413402  HIT:   12384844  MISS:    1028558
L1I LOAD      ACCESS:    9399873  HIT:    9245019  MISS:     154854
L1I RFO       ACCESS:          0  HIT:          0  MISS:          0
L1I PREFETCH  ACCESS:    4013529  HIT:    3139825  MISS:     873704
L1I WRITEBACK ACCESS:          0  HIT:          0  MISS:          0
L1I PREFETCH  REQUESTED:    4405925  ISSUED:    4315440  USEFUL:     494870  USELESS:     378883
L1I AVERAGE MISS LATENCY: 22.3291 cycles
L2C TOTAL     ACCESS:    2875236  HIT:    2579052  MISS:     296184
L2C LOAD      ACCESS:     521072  HIT:     426317  MISS:      94755
L2C RFO       ACCESS:     117377  HIT:      45098  MISS:      72279
L2C PREFETCH  ACCESS:    2014760  HIT:    1886321  MISS:     128439
L2C WRITEBACK ACCESS:     222027  HIT:     221316  MISS:        711
L2C PREFETCH  REQUESTED:    1582623  ISSUED:    1581989  USEFUL:      30529  USELESS:      97510
L2C AVERAGE MISS LATENCY: 75.3878 cycles
LLC TOTAL     ACCESS:     688365  HIT:     560536  MISS:     127829
LLC LOAD      ACCESS:      94736  HIT:      65133  MISS:      29603
LLC RFO       ACCESS:      72278  HIT:      41594  MISS:      30684
LLC PREFETCH  ACCESS:     420112  HIT:     352853  MISS:      67259
LLC WRITEBACK ACCESS:     101239  HIT:     100956  MISS:        283
LLC PREFETCH  REQUESTED:          0  ISSUED:          0  USEFUL:      25690  USELESS:      44499
LLC AVERAGE MISS LATENCY: 165.64 cycles
Major fault: 0 Minor fault: 3983
CPU 0 L1D next line prefetcher final stats

DRAM Statistics
 CHANNEL 0
 RQ ROW_BUFFER_HIT:      30388  ROW_BUFFER_MISS:      97142
 DBUS_CONGESTED:      54437
 WQ ROW_BUFFER_HIT:      10185  ROW_BUFFER_MISS:      32872  FULL:          0

 AVG_CONGESTED_CYCLE: 6

CPU 0 Branch Prediction Accuracy: 94.1242% MPKI: 11.6089 Average ROB Occupancy at Mispredict: 55.2246

Branch types
NOT_BRANCH: 40121075 80.2421%
BRANCH_DIRECT_JUMP: 644555 1.28911%
BRANCH_INDIRECT: 201946 0.403892%
BRANCH_CONDITIONAL: 7003556 14.0071%
BRANCH_DIRECT_CALL: 564821 1.12964%
BRANCH_INDIRECT_CALL: 445012 0.890024%
BRANCH_RETURN: 1018716 2.03743%
BRANCH_OTHER: 0 0%

