Initialize SIGNATURE TABLE
ST_SET: 1
ST_WAY: 256
ST_TAG_BIT: 16
ST_TAG_MASK: ffff

Initialize PATTERN TABLE
PT_SET: 512
PT_WAY: 4
SIG_DELTA_BIT: 7
C_SIG_BIT: 4
C_DELTA_BIT: 4

Initialize PREFETCH FILTER
FILTER_SET: 1024

*** ChampSim Multicore Out-of-Order Simulator ***

Warmup Instructions: 50000000
Simulation Instructions: 50000000
Number of CPUs: 1
LLC sets: 2048
LLC ways: 16
Off-chip DRAM Size: 4096 MB Channels: 1 Width: 64-bit Data Rate: 3200 MT/s

CPU 0 runs /Users/brandon/Documents/CoursesWi22/CSE240C/Homework1/ChampSim/ipc1_public/server_017.champsimtrace.xz
L1I D-JOLT instruction prefetcher has been constructed!
CPU 0 L1D next line prefetcher
Heartbeat CPU 0 instructions: 10000001 cycles: 3622763 heartbeat IPC: 2.76032 cumulative IPC: 2.76032 (Simulation time: 0 hr 1 min 37 sec) 
Heartbeat CPU 0 instructions: 20000000 cycles: 7243622 heartbeat IPC: 2.76178 cumulative IPC: 2.76105 (Simulation time: 0 hr 3 min 41 sec) 
Heartbeat CPU 0 instructions: 30000002 cycles: 10870963 heartbeat IPC: 2.75684 cumulative IPC: 2.75965 (Simulation time: 0 hr 5 min 40 sec) 
Heartbeat CPU 0 instructions: 40000000 cycles: 14493735 heartbeat IPC: 2.76032 cumulative IPC: 2.75981 (Simulation time: 0 hr 7 min 36 sec) 
Heartbeat CPU 0 instructions: 50000001 cycles: 18127582 heartbeat IPC: 2.7519 cumulative IPC: 2.75823 (Simulation time: 0 hr 9 min 32 sec) 

Warmup complete CPU 0 instructions: 50000001 cycles: 18127582 (Simulation time: 0 hr 9 min 32 sec) 

Heartbeat CPU 0 instructions: 60000002 cycles: 35527221 heartbeat IPC: 0.574725 cumulative IPC: 0.574725 (Simulation time: 0 hr 12 min 2 sec) 
Heartbeat CPU 0 instructions: 70000002 cycles: 53000799 heartbeat IPC: 0.572293 cumulative IPC: 0.573506 (Simulation time: 0 hr 14 min 32 sec) 
Heartbeat CPU 0 instructions: 80000000 cycles: 70238402 heartbeat IPC: 0.580127 cumulative IPC: 0.575696 (Simulation time: 0 hr 16 min 29 sec) 
Heartbeat CPU 0 instructions: 90000002 cycles: 93358767 heartbeat IPC: 0.432519 cumulative IPC: 0.531694 (Simulation time: 0 hr 17 min 23 sec) 
Heartbeat CPU 0 instructions: 100000003 cycles: 113235728 heartbeat IPC: 0.503095 cumulative IPC: 0.525717 (Simulation time: 0 hr 18 min 1 sec) 
Finished CPU 0 instructions: 50000002 cycles: 95108146 cumulative IPC: 0.525717 (Simulation time: 0 hr 18 min 1 sec) 

ChampSim completed all CPUs

Region of Interest Statistics

CPU 0 cumulative IPC: 0.525717 instructions: 50000002 cycles: 95108146
L1D TOTAL     ACCESS:   18370129  HIT:   16204624  MISS:    2165505
L1D LOAD      ACCESS:    7022375  HIT:    6279123  MISS:     743252
L1D RFO       ACCESS:    5512967  HIT:    4653698  MISS:     859269
L1D PREFETCH  ACCESS:    5834787  HIT:    5271803  MISS:     562984
L1D WRITEBACK ACCESS:          0  HIT:          0  MISS:          0
L1D PREFETCH  REQUESTED:    7060154  ISSUED:    6869956  USEFUL:     200680  USELESS:     362365
L1D AVERAGE MISS LATENCY: 177.726 cycles
L1I TOTAL     ACCESS:   17202349  HIT:   14176109  MISS:    3026240
L1I LOAD      ACCESS:    9910165  HIT:    9875940  MISS:      34225
L1I RFO       ACCESS:          0  HIT:          0  MISS:          0
L1I PREFETCH  ACCESS:    7292184  HIT:    4300169  MISS:    2992015
L1I WRITEBACK ACCESS:          0  HIT:          0  MISS:          0
L1I PREFETCH  REQUESTED:    7790152  ISSUED:    7758439  USEFUL:    2443026  USELESS:     548999
L1I AVERAGE MISS LATENCY: 18.2958 cycles
L2C TOTAL     ACCESS:    7651671  HIT:    5806411  MISS:    1845260
L2C LOAD      ACCESS:     570799  HIT:     242137  MISS:     328662
L2C RFO       ACCESS:     858749  HIT:      17347  MISS:     841402
L2C PREFETCH  ACCESS:    5099186  HIT:    4427918  MISS:     671268
L2C WRITEBACK ACCESS:    1122937  HIT:    1119009  MISS:       3928
L2C PREFETCH  REQUESTED:    4791544  ISSUED:    4785754  USEFUL:      20783  USELESS:     651193
L2C AVERAGE MISS LATENCY: 212.08 cycles
LLC TOTAL     ACCESS:    4173777  HIT:    2647028  MISS:    1526749
LLC LOAD      ACCESS:     328576  HIT:     172539  MISS:     156037
LLC RFO       ACCESS:     841402  HIT:     122749  MISS:     718653
LLC PREFETCH  ACCESS:    1940444  HIT:    1290902  MISS:     649542
LLC WRITEBACK ACCESS:    1063355  HIT:    1060838  MISS:       2517
LLC PREFETCH  REQUESTED:          0  ISSUED:          0  USEFUL:      48794  USELESS:     599395
LLC AVERAGE MISS LATENCY: 272.768 cycles
Major fault: 0 Minor fault: 24698
CPU 0 L1D next line prefetcher final stats

DRAM Statistics
 CHANNEL 0
 RQ ROW_BUFFER_HIT:     378068  ROW_BUFFER_MISS:    1145925
 DBUS_CONGESTED:    1468807
 WQ ROW_BUFFER_HIT:     244792  ROW_BUFFER_MISS:     633708  FULL:          0

 AVG_CONGESTED_CYCLE: 6

CPU 0 Branch Prediction Accuracy: 99.2833% MPKI: 1.20568 Average ROB Occupancy at Mispredict: 182.259

Branch types
NOT_BRANCH: 41588346 83.1767%
BRANCH_DIRECT_JUMP: 464501 0.929002%
BRANCH_INDIRECT: 45704 0.091408%
BRANCH_CONDITIONAL: 6147408 12.2948%
BRANCH_DIRECT_CALL: 675450 1.3509%
BRANCH_INDIRECT_CALL: 201532 0.403064%
BRANCH_RETURN: 876985 1.75397%
BRANCH_OTHER: 0 0%

