Initialize SIGNATURE TABLE
ST_SET: 1
ST_WAY: 256
ST_TAG_BIT: 16
ST_TAG_MASK: ffff

Initialize PATTERN TABLE
PT_SET: 512
PT_WAY: 4
SIG_DELTA_BIT: 7
C_SIG_BIT: 4
C_DELTA_BIT: 4

Initialize PREFETCH FILTER
FILTER_SET: 1024

*** ChampSim Multicore Out-of-Order Simulator ***

Warmup Instructions: 50000000
Simulation Instructions: 50000000
Number of CPUs: 1
LLC sets: 2048
LLC ways: 16
Off-chip DRAM Size: 4096 MB Channels: 1 Width: 64-bit Data Rate: 3200 MT/s

CPU 0 runs /Users/brandon/Documents/CoursesWi22/CSE240C/Homework1/ChampSim/ipc1_public/server_020.champsimtrace.xz
L1I D-JOLT instruction prefetcher has been constructed!
CPU 0 L1D next line prefetcher
Heartbeat CPU 0 instructions: 10000003 cycles: 3621477 heartbeat IPC: 2.76131 cumulative IPC: 2.76131 (Simulation time: 0 hr 1 min 37 sec) 
Heartbeat CPU 0 instructions: 20000002 cycles: 7247425 heartbeat IPC: 2.7579 cumulative IPC: 2.7596 (Simulation time: 0 hr 3 min 40 sec) 
Heartbeat CPU 0 instructions: 30000001 cycles: 10866725 heartbeat IPC: 2.76296 cumulative IPC: 2.76072 (Simulation time: 0 hr 5 min 37 sec) 
Heartbeat CPU 0 instructions: 40000002 cycles: 14487366 heartbeat IPC: 2.76194 cumulative IPC: 2.76103 (Simulation time: 0 hr 7 min 32 sec) 
Heartbeat CPU 0 instructions: 50000001 cycles: 18121239 heartbeat IPC: 2.75188 cumulative IPC: 2.75919 (Simulation time: 0 hr 9 min 27 sec) 

Warmup complete CPU 0 instructions: 50000001 cycles: 18121239 (Simulation time: 0 hr 9 min 27 sec) 

Heartbeat CPU 0 instructions: 60000003 cycles: 35712764 heartbeat IPC: 0.568456 cumulative IPC: 0.568456 (Simulation time: 0 hr 11 min 57 sec) 
Heartbeat CPU 0 instructions: 70000002 cycles: 53462214 heartbeat IPC: 0.563398 cumulative IPC: 0.565915 (Simulation time: 0 hr 14 min 26 sec) 
Heartbeat CPU 0 instructions: 80000002 cycles: 71153413 heartbeat IPC: 0.565253 cumulative IPC: 0.565694 (Simulation time: 0 hr 16 min 26 sec) 
Heartbeat CPU 0 instructions: 90000001 cycles: 88832241 heartbeat IPC: 0.565648 cumulative IPC: 0.565683 (Simulation time: 0 hr 17 min 23 sec) 
Heartbeat CPU 0 instructions: 100000002 cycles: 106555987 heartbeat IPC: 0.564215 cumulative IPC: 0.565389 (Simulation time: 0 hr 18 min 1 sec) 
Finished CPU 0 instructions: 50000001 cycles: 88434748 cumulative IPC: 0.565389 (Simulation time: 0 hr 18 min 1 sec) 

ChampSim completed all CPUs

Region of Interest Statistics

CPU 0 cumulative IPC: 0.565389 instructions: 50000001 cycles: 88434748
L1D TOTAL     ACCESS:   18638677  HIT:   16434476  MISS:    2204201
L1D LOAD      ACCESS:    7046945  HIT:    6323093  MISS:     723852
L1D RFO       ACCESS:    5817884  HIT:    4871977  MISS:     945907
L1D PREFETCH  ACCESS:    5773848  HIT:    5239406  MISS:     534442
L1D WRITEBACK ACCESS:          0  HIT:          0  MISS:          0
L1D PREFETCH  REQUESTED:    7088183  ISSUED:    6887505  USEFUL:     195183  USELESS:     339178
L1D AVERAGE MISS LATENCY: 177.561 cycles
L1I TOTAL     ACCESS:   18164793  HIT:   14718313  MISS:    3446480
L1I LOAD      ACCESS:   10133213  HIT:   10094773  MISS:      38440
L1I RFO       ACCESS:          0  HIT:          0  MISS:          0
L1I PREFETCH  ACCESS:    8031580  HIT:    4623540  MISS:    3408040
L1I WRITEBACK ACCESS:          0  HIT:          0  MISS:          0
L1I PREFETCH  REQUESTED:    8576946  ISSUED:    8536308  USEFUL:    2723237  USELESS:     684840
L1I AVERAGE MISS LATENCY: 18.1556 cycles
L2C TOTAL     ACCESS:    8299981  HIT:    6434931  MISS:    1865050
L2C LOAD      ACCESS:     528464  HIT:     261556  MISS:     266908
L2C RFO       ACCESS:     945463  HIT:      20416  MISS:     925047
L2C PREFETCH  ACCESS:    5662515  HIT:    4991147  MISS:     671368
L2C WRITEBACK ACCESS:    1163539  HIT:    1161812  MISS:       1727
L2C PREFETCH  REQUESTED:    4927889  ISSUED:    4924205  USEFUL:      21801  USELESS:     648434
L2C AVERAGE MISS LATENCY: 216.994 cycles
LLC TOTAL     ACCESS:    4208702  HIT:    2739460  MISS:    1469242
LLC LOAD      ACCESS:     266806  HIT:     162903  MISS:     103903
LLC RFO       ACCESS:     925039  HIT:     136689  MISS:     788350
LLC PREFETCH  ACCESS:    1919645  HIT:    1344493  MISS:     575152
LLC WRITEBACK ACCESS:    1097212  HIT:    1095375  MISS:       1837
LLC PREFETCH  REQUESTED:          0  ISSUED:          0  USEFUL:      32656  USELESS:     542462
LLC AVERAGE MISS LATENCY: 282.458 cycles
Major fault: 0 Minor fault: 22094
CPU 0 L1D next line prefetcher final stats

DRAM Statistics
 CHANNEL 0
 RQ ROW_BUFFER_HIT:     408591  ROW_BUFFER_MISS:    1058506
 DBUS_CONGESTED:    1457683
 WQ ROW_BUFFER_HIT:     256432  ROW_BUFFER_MISS:     636062  FULL:          0

 AVG_CONGESTED_CYCLE: 6

CPU 0 Branch Prediction Accuracy: 99.712% MPKI: 0.47638 Average ROB Occupancy at Mispredict: 215.232

Branch types
NOT_BRANCH: 41729502 83.459%
BRANCH_DIRECT_JUMP: 458220 0.91644%
BRANCH_INDIRECT: 49088 0.098176%
BRANCH_CONDITIONAL: 5938530 11.8771%
BRANCH_DIRECT_CALL: 745131 1.49026%
BRANCH_INDIRECT_CALL: 167109 0.334218%
BRANCH_RETURN: 912221 1.82444%
BRANCH_OTHER: 0 0%

