Initialize SIGNATURE TABLE
ST_SET: 1
ST_WAY: 256
ST_TAG_BIT: 16
ST_TAG_MASK: ffff

Initialize PATTERN TABLE
PT_SET: 512
PT_WAY: 4
SIG_DELTA_BIT: 7
C_SIG_BIT: 4
C_DELTA_BIT: 4

Initialize PREFETCH FILTER
FILTER_SET: 1024

*** ChampSim Multicore Out-of-Order Simulator ***

Warmup Instructions: 50000000
Simulation Instructions: 50000000
Number of CPUs: 1
LLC sets: 2048
LLC ways: 16
Off-chip DRAM Size: 4096 MB Channels: 1 Width: 64-bit Data Rate: 3200 MT/s

CPU 0 runs /Users/brandon/Documents/CoursesWi22/CSE240C/Homework1/ChampSim/ipc1_public/server_012.champsimtrace.xz
L1I D-JOLT instruction prefetcher has been constructed!
CPU 0 L1D next line prefetcher
Heartbeat CPU 0 instructions: 10000002 cycles: 3192855 heartbeat IPC: 3.13199 cumulative IPC: 3.13199 (Simulation time: 0 hr 1 min 27 sec) 
Heartbeat CPU 0 instructions: 20000002 cycles: 6388827 heartbeat IPC: 3.12894 cumulative IPC: 3.13047 (Simulation time: 0 hr 3 min 18 sec) 
Heartbeat CPU 0 instructions: 30000001 cycles: 9586880 heartbeat IPC: 3.1269 cumulative IPC: 3.12928 (Simulation time: 0 hr 5 min 5 sec) 
Heartbeat CPU 0 instructions: 40000000 cycles: 12790053 heartbeat IPC: 3.1219 cumulative IPC: 3.12743 (Simulation time: 0 hr 6 min 49 sec) 
Heartbeat CPU 0 instructions: 50000003 cycles: 15987490 heartbeat IPC: 3.12751 cumulative IPC: 3.12745 (Simulation time: 0 hr 8 min 35 sec) 

Warmup complete CPU 0 instructions: 50000003 cycles: 15987490 (Simulation time: 0 hr 8 min 35 sec) 

Heartbeat CPU 0 instructions: 60000002 cycles: 23210134 heartbeat IPC: 1.38453 cumulative IPC: 1.38453 (Simulation time: 0 hr 10 min 8 sec) 
Heartbeat CPU 0 instructions: 70000000 cycles: 30351350 heartbeat IPC: 1.40032 cumulative IPC: 1.39238 (Simulation time: 0 hr 11 min 37 sec) 
Heartbeat CPU 0 instructions: 80000003 cycles: 37473972 heartbeat IPC: 1.40398 cumulative IPC: 1.39623 (Simulation time: 0 hr 13 min 8 sec) 
Heartbeat CPU 0 instructions: 90000001 cycles: 44902146 heartbeat IPC: 1.34623 cumulative IPC: 1.38338 (Simulation time: 0 hr 14 min 38 sec) 
Heartbeat CPU 0 instructions: 100000002 cycles: 52187367 heartbeat IPC: 1.37264 cumulative IPC: 1.38122 (Simulation time: 0 hr 16 min 0 sec) 
Finished CPU 0 instructions: 50000001 cycles: 36199878 cumulative IPC: 1.38122 (Simulation time: 0 hr 16 min 0 sec) 

ChampSim completed all CPUs

Region of Interest Statistics

CPU 0 cumulative IPC: 1.38122 instructions: 50000001 cycles: 36199878
L1D TOTAL     ACCESS:   17326884  HIT:   16284101  MISS:    1042783
L1D LOAD      ACCESS:    6305150  HIT:    5817195  MISS:     487955
L1D RFO       ACCESS:    4959160  HIT:    4877289  MISS:      81871
L1D PREFETCH  ACCESS:    6062574  HIT:    5589617  MISS:     472957
L1D WRITEBACK ACCESS:          0  HIT:          0  MISS:          0
L1D PREFETCH  REQUESTED:    6338952  ISSUED:    6239960  USEFUL:     132425  USELESS:     340553
L1D AVERAGE MISS LATENCY: 41.1289 cycles
L1I TOTAL     ACCESS:   15629721  HIT:   13671174  MISS:    1958547
L1I LOAD      ACCESS:    8752856  HIT:    8674722  MISS:      78134
L1I RFO       ACCESS:          0  HIT:          0  MISS:          0
L1I PREFETCH  ACCESS:    6876865  HIT:    4996452  MISS:    1880413
L1I WRITEBACK ACCESS:          0  HIT:          0  MISS:          0
L1I PREFETCH  REQUESTED:    7519358  ISSUED:    7144671  USEFUL:    1400584  USELESS:     479873
L1I AVERAGE MISS LATENCY: 30.8077 cycles
L2C TOTAL     ACCESS:    3946592  HIT:    2666494  MISS:    1280098
L2C LOAD      ACCESS:     507905  HIT:     242373  MISS:     265532
L2C RFO       ACCESS:      80625  HIT:      31755  MISS:      48870
L2C PREFETCH  ACCESS:    3082575  HIT:    2118443  MISS:     964132
L2C WRITEBACK ACCESS:     275487  HIT:     273923  MISS:       1564
L2C PREFETCH  REQUESTED:    2986474  ISSUED:    2982301  USEFUL:      27947  USELESS:     936219
L2C AVERAGE MISS LATENCY: 46.9125 cycles
LLC TOTAL     ACCESS:    2396749  HIT:    2231958  MISS:     164791
LLC LOAD      ACCESS:     265456  HIT:     244361  MISS:      21095
LLC RFO       ACCESS:      48867  HIT:      37367  MISS:      11500
LLC PREFETCH  ACCESS:    1914908  HIT:    1783279  MISS:     131629
LLC WRITEBACK ACCESS:     167518  HIT:     166951  MISS:        567
LLC PREFETCH  REQUESTED:          0  ISSUED:          0  USEFUL:      12602  USELESS:     120227
LLC AVERAGE MISS LATENCY: 173.395 cycles
Major fault: 0 Minor fault: 5611
CPU 0 L1D next line prefetcher final stats

DRAM Statistics
 CHANNEL 0
 RQ ROW_BUFFER_HIT:      25806  ROW_BUFFER_MISS:     138381
 DBUS_CONGESTED:      69070
 WQ ROW_BUFFER_HIT:      11459  ROW_BUFFER_MISS:      49898  FULL:          0

 AVG_CONGESTED_CYCLE: 5

CPU 0 Branch Prediction Accuracy: 99.4607% MPKI: 1.00288 Average ROB Occupancy at Mispredict: 125.193

Branch types
NOT_BRANCH: 40701161 81.4023%
BRANCH_DIRECT_JUMP: 469810 0.93962%
BRANCH_INDIRECT: 153732 0.307464%
BRANCH_CONDITIONAL: 6944091 13.8882%
BRANCH_DIRECT_CALL: 679880 1.35976%
BRANCH_INDIRECT_CALL: 168745 0.33749%
BRANCH_RETURN: 882493 1.76499%
BRANCH_OTHER: 0 0%

