Initialize SIGNATURE TABLE
ST_SET: 1
ST_WAY: 256
ST_TAG_BIT: 16
ST_TAG_MASK: ffff

Initialize PATTERN TABLE
PT_SET: 512
PT_WAY: 4
SIG_DELTA_BIT: 7
C_SIG_BIT: 4
C_DELTA_BIT: 4

Initialize PREFETCH FILTER
FILTER_SET: 1024

*** ChampSim Multicore Out-of-Order Simulator ***

Warmup Instructions: 50000000
Simulation Instructions: 50000000
Number of CPUs: 1
LLC sets: 2048
LLC ways: 16
Off-chip DRAM Size: 4096 MB Channels: 1 Width: 64-bit Data Rate: 3200 MT/s

CPU 0 runs /Users/brandon/Documents/CoursesWi22/CSE240C/Homework1/ChampSim/ipc1_public/server_009.champsimtrace.xz
L1I D-JOLT instruction prefetcher has been constructed!
CPU 0 L1D next line prefetcher
Heartbeat CPU 0 instructions: 10000003 cycles: 3196364 heartbeat IPC: 3.12856 cumulative IPC: 3.12856 (Simulation time: 0 hr 1 min 27 sec) 
Heartbeat CPU 0 instructions: 20000001 cycles: 6386617 heartbeat IPC: 3.13455 cumulative IPC: 3.13155 (Simulation time: 0 hr 3 min 19 sec) 
Heartbeat CPU 0 instructions: 30000002 cycles: 9591768 heartbeat IPC: 3.11998 cumulative IPC: 3.12768 (Simulation time: 0 hr 5 min 6 sec) 
Heartbeat CPU 0 instructions: 40000003 cycles: 12793296 heartbeat IPC: 3.12351 cumulative IPC: 3.12664 (Simulation time: 0 hr 6 min 51 sec) 
Heartbeat CPU 0 instructions: 50000000 cycles: 16051350 heartbeat IPC: 3.06932 cumulative IPC: 3.115 (Simulation time: 0 hr 8 min 38 sec) 

Warmup complete CPU 0 instructions: 50000004 cycles: 16051351 (Simulation time: 0 hr 8 min 38 sec) 

Heartbeat CPU 0 instructions: 60000002 cycles: 31744817 heartbeat IPC: 0.637208 cumulative IPC: 0.637208 (Simulation time: 0 hr 10 min 45 sec) 
Heartbeat CPU 0 instructions: 70000003 cycles: 52823199 heartbeat IPC: 0.47442 cumulative IPC: 0.543894 (Simulation time: 0 hr 13 min 18 sec) 
Heartbeat CPU 0 instructions: 80000000 cycles: 59958882 heartbeat IPC: 1.40141 cumulative IPC: 0.683254 (Simulation time: 0 hr 14 min 47 sec) 
Heartbeat CPU 0 instructions: 90000001 cycles: 67252229 heartbeat IPC: 1.37111 cumulative IPC: 0.781237 (Simulation time: 0 hr 16 min 6 sec) 
Heartbeat CPU 0 instructions: 100000003 cycles: 74415753 heartbeat IPC: 1.39596 cumulative IPC: 0.856687 (Simulation time: 0 hr 16 min 52 sec) 
Finished CPU 0 instructions: 50000003 cycles: 58364403 cumulative IPC: 0.856687 (Simulation time: 0 hr 16 min 52 sec) 

ChampSim completed all CPUs

Region of Interest Statistics

CPU 0 cumulative IPC: 0.856687 instructions: 50000003 cycles: 58364403
L1D TOTAL     ACCESS:   21616418  HIT:   17036950  MISS:    4579468
L1D LOAD      ACCESS:    8624795  HIT:    6344414  MISS:    2280381
L1D RFO       ACCESS:    4580681  HIT:    4476263  MISS:     104418
L1D PREFETCH  ACCESS:    8410942  HIT:    6216273  MISS:    2194669
L1D WRITEBACK ACCESS:          0  HIT:          0  MISS:          0
L1D PREFETCH  REQUESTED:    8656911  ISSUED:    8559764  USEFUL:     106217  USELESS:    2088451
L1D AVERAGE MISS LATENCY: 20.4382 cycles
L1I TOTAL     ACCESS:   16676304  HIT:   15165799  MISS:    1510505
L1I LOAD      ACCESS:   10779952  HIT:   10710034  MISS:      69918
L1I RFO       ACCESS:          0  HIT:          0  MISS:          0
L1I PREFETCH  ACCESS:    5896352  HIT:    4455765  MISS:    1440587
L1I WRITEBACK ACCESS:          0  HIT:          0  MISS:          0
L1I PREFETCH  REQUESTED:    6361617  ISSUED:    6103807  USEFUL:    1075882  USELESS:     364689
L1I AVERAGE MISS LATENCY: 31.8134 cycles
L2C TOTAL     ACCESS:    7759397  HIT:    6704910  MISS:    1054487
L2C LOAD      ACCESS:    2303538  HIT:    2078162  MISS:     225376
L2C RFO       ACCESS:     103464  HIT:      63130  MISS:      40334
L2C PREFETCH  ACCESS:    5095538  HIT:    4308015  MISS:     787523
L2C WRITEBACK ACCESS:     256857  HIT:     255603  MISS:       1254
L2C PREFETCH  REQUESTED:    6399901  ISSUED:    6397409  USEFUL:      22898  USELESS:     763479
L2C AVERAGE MISS LATENCY: 47.3672 cycles
LLC TOTAL     ACCESS:    2279816  HIT:    2140354  MISS:     139462
LLC LOAD      ACCESS:     225149  HIT:     203865  MISS:      21284
LLC RFO       ACCESS:      40328  HIT:      31359  MISS:       8969
LLC PREFETCH  ACCESS:    1875171  HIT:    1766142  MISS:     109029
LLC WRITEBACK ACCESS:     139168  HIT:     138988  MISS:        180
LLC PREFETCH  REQUESTED:          0  ISSUED:          0  USEFUL:      13087  USELESS:      95233
LLC AVERAGE MISS LATENCY: 173.454 cycles
Major fault: 0 Minor fault: 6364
CPU 0 L1D next line prefetcher final stats

DRAM Statistics
 CHANNEL 0
 RQ ROW_BUFFER_HIT:      25524  ROW_BUFFER_MISS:     113739
 DBUS_CONGESTED:      59318
 WQ ROW_BUFFER_HIT:       8567  ROW_BUFFER_MISS:      38128  FULL:          0

 AVG_CONGESTED_CYCLE: 5

CPU 0 Branch Prediction Accuracy: 99.4713% MPKI: 1.11484 Average ROB Occupancy at Mispredict: 118.785

Branch types
NOT_BRANCH: 39456615 78.9132%
BRANCH_DIRECT_JUMP: 445350 0.8907%
BRANCH_INDIRECT: 131149 0.262298%
BRANCH_CONDITIONAL: 8130196 16.2604%
BRANCH_DIRECT_CALL: 732485 1.46497%
BRANCH_INDIRECT_CALL: 172369 0.344738%
BRANCH_RETURN: 931558 1.86312%
BRANCH_OTHER: 0 0%

