Initialize SIGNATURE TABLE
ST_SET: 1
ST_WAY: 256
ST_TAG_BIT: 16
ST_TAG_MASK: ffff

Initialize PATTERN TABLE
PT_SET: 512
PT_WAY: 4
SIG_DELTA_BIT: 7
C_SIG_BIT: 4
C_DELTA_BIT: 4

Initialize PREFETCH FILTER
FILTER_SET: 1024

*** ChampSim Multicore Out-of-Order Simulator ***

Warmup Instructions: 50000000
Simulation Instructions: 50000000
Number of CPUs: 1
LLC sets: 2048
LLC ways: 16
Off-chip DRAM Size: 4096 MB Channels: 1 Width: 64-bit Data Rate: 3200 MT/s

CPU 0 runs /Users/brandon/Documents/CoursesWi22/CSE240C/Homework1/ChampSim/ipc1_public/spec_gobmk_001.champsimtrace.xz
L1I D-JOLT instruction prefetcher has been constructed!
CPU 0 L1D next line prefetcher
Heartbeat CPU 0 instructions: 10000003 cycles: 3507180 heartbeat IPC: 2.85129 cumulative IPC: 2.85129 (Simulation time: 0 hr 1 min 21 sec) 
Heartbeat CPU 0 instructions: 20000002 cycles: 6987578 heartbeat IPC: 2.87323 cumulative IPC: 2.86222 (Simulation time: 0 hr 2 min 42 sec) 
Heartbeat CPU 0 instructions: 30000002 cycles: 10506355 heartbeat IPC: 2.8419 cumulative IPC: 2.85541 (Simulation time: 0 hr 4 min 4 sec) 
Heartbeat CPU 0 instructions: 40000001 cycles: 14025305 heartbeat IPC: 2.84176 cumulative IPC: 2.85199 (Simulation time: 0 hr 5 min 26 sec) 
Heartbeat CPU 0 instructions: 50000001 cycles: 17565401 heartbeat IPC: 2.82478 cumulative IPC: 2.8465 (Simulation time: 0 hr 6 min 48 sec) 

Warmup complete CPU 0 instructions: 50000001 cycles: 17565401 (Simulation time: 0 hr 6 min 48 sec) 

Heartbeat CPU 0 instructions: 60000000 cycles: 26351917 heartbeat IPC: 1.13811 cumulative IPC: 1.13811 (Simulation time: 0 hr 7 min 50 sec) 
Heartbeat CPU 0 instructions: 70000002 cycles: 34775534 heartbeat IPC: 1.18714 cumulative IPC: 1.16211 (Simulation time: 0 hr 8 min 49 sec) 
Heartbeat CPU 0 instructions: 80000003 cycles: 43635927 heartbeat IPC: 1.12862 cumulative IPC: 1.15072 (Simulation time: 0 hr 9 min 48 sec) 
Heartbeat CPU 0 instructions: 90000001 cycles: 52151040 heartbeat IPC: 1.17438 cumulative IPC: 1.15655 (Simulation time: 0 hr 10 min 45 sec) 
Heartbeat CPU 0 instructions: 100000003 cycles: 60990339 heartbeat IPC: 1.13131 cumulative IPC: 1.15141 (Simulation time: 0 hr 11 min 49 sec) 
Finished CPU 0 instructions: 50000002 cycles: 43424938 cumulative IPC: 1.15141 (Simulation time: 0 hr 11 min 49 sec) 

ChampSim completed all CPUs

Region of Interest Statistics

CPU 0 cumulative IPC: 1.15141 instructions: 50000002 cycles: 43424938
L1D TOTAL     ACCESS:   17984731  HIT:   17605228  MISS:     379503
L1D LOAD      ACCESS:    7211562  HIT:    7075751  MISS:     135811
L1D RFO       ACCESS:    3701033  HIT:    3596464  MISS:     104569
L1D PREFETCH  ACCESS:    7072136  HIT:    6933013  MISS:     139123
L1D WRITEBACK ACCESS:          0  HIT:          0  MISS:          0
L1D PREFETCH  REQUESTED:    7216841  ISSUED:    7134117  USEFUL:      44443  USELESS:      94686
L1D AVERAGE MISS LATENCY: 32.7715 cycles
L1I TOTAL     ACCESS:   13742652  HIT:   12200405  MISS:    1542247
L1I LOAD      ACCESS:    8974094  HIT:    8913496  MISS:      60598
L1I RFO       ACCESS:          0  HIT:          0  MISS:          0
L1I PREFETCH  ACCESS:    4768558  HIT:    3286909  MISS:    1481649
L1I WRITEBACK ACCESS:          0  HIT:          0  MISS:          0
L1I PREFETCH  REQUESTED:    4928562  ISSUED:    4807489  USEFUL:     757764  USELESS:     723834
L1I AVERAGE MISS LATENCY: 15.2331 cycles
L2C TOTAL     ACCESS:    2775566  HIT:    2647287  MISS:     128279
L2C LOAD      ACCESS:     168836  HIT:     132091  MISS:      36745
L2C RFO       ACCESS:     104209  HIT:      70352  MISS:      33857
L2C PREFETCH  ACCESS:    2363220  HIT:    2305567  MISS:      57653
L2C WRITEBACK ACCESS:     139301  HIT:     139277  MISS:         24
L2C PREFETCH  REQUESTED:    1220531  ISSUED:    1220492  USEFUL:       5883  USELESS:      52124
L2C AVERAGE MISS LATENCY: 61.0154 cycles
LLC TOTAL     ACCESS:     267941  HIT:     236521  MISS:      31420
LLC LOAD      ACCESS:      36742  HIT:      28658  MISS:       8084
LLC RFO       ACCESS:      33857  HIT:      29133  MISS:       4724
LLC PREFETCH  ACCESS:     152799  HIT:     134396  MISS:      18403
LLC WRITEBACK ACCESS:      44543  HIT:      44334  MISS:        209
LLC PREFETCH  REQUESTED:          0  ISSUED:          0  USEFUL:       1428  USELESS:      15731
LLC AVERAGE MISS LATENCY: 179.619 cycles
Major fault: 0 Minor fault: 4161
CPU 0 L1D next line prefetcher final stats

DRAM Statistics
 CHANNEL 0
 RQ ROW_BUFFER_HIT:       3321  ROW_BUFFER_MISS:      27889
 DBUS_CONGESTED:      16169
 WQ ROW_BUFFER_HIT:       1051  ROW_BUFFER_MISS:      13025  FULL:          0

 AVG_CONGESTED_CYCLE: 4

CPU 0 Branch Prediction Accuracy: 94.7729% MPKI: 9.72684 Average ROB Occupancy at Mispredict: 53.9608

Branch types
NOT_BRANCH: 40695388 81.3908%
BRANCH_DIRECT_JUMP: 422107 0.844214%
BRANCH_INDIRECT: 65 0.00013%
BRANCH_CONDITIONAL: 8105007 16.21%
BRANCH_DIRECT_CALL: 374913 0.749826%
BRANCH_INDIRECT_CALL: 13657 0.027314%
BRANCH_RETURN: 388556 0.777112%
BRANCH_OTHER: 0 0%

