Initialize SIGNATURE TABLE
ST_SET: 1
ST_WAY: 256
ST_TAG_BIT: 16
ST_TAG_MASK: ffff

Initialize PATTERN TABLE
PT_SET: 512
PT_WAY: 4
SIG_DELTA_BIT: 7
C_SIG_BIT: 4
C_DELTA_BIT: 4

Initialize PREFETCH FILTER
FILTER_SET: 1024

*** ChampSim Multicore Out-of-Order Simulator ***

Warmup Instructions: 50000000
Simulation Instructions: 50000000
Number of CPUs: 1
LLC sets: 2048
LLC ways: 16
Off-chip DRAM Size: 4096 MB Channels: 1 Width: 64-bit Data Rate: 3200 MT/s

CPU 0 runs /Users/brandon/Documents/CoursesWi22/CSE240C/Homework1/ChampSim/ipc1_public/client_006.champsimtrace.xz
CPU 0 L1I next line prefetcher
CPU 0 L1D next line prefetcher
Heartbeat CPU 0 instructions: 10000003 cycles: 4267439 heartbeat IPC: 2.34333 cumulative IPC: 2.34333 (Simulation time: 0 hr 1 min 47 sec) 
Heartbeat CPU 0 instructions: 20000000 cycles: 8307340 heartbeat IPC: 2.47531 cumulative IPC: 2.40751 (Simulation time: 0 hr 3 min 46 sec) 
Heartbeat CPU 0 instructions: 30000003 cycles: 11370424 heartbeat IPC: 3.26468 cumulative IPC: 2.63842 (Simulation time: 0 hr 5 min 21 sec) 
Heartbeat CPU 0 instructions: 40000000 cycles: 14715350 heartbeat IPC: 2.9896 cumulative IPC: 2.71825 (Simulation time: 0 hr 7 min 1 sec) 
Heartbeat CPU 0 instructions: 50000003 cycles: 18820281 heartbeat IPC: 2.4361 cumulative IPC: 2.65671 (Simulation time: 0 hr 8 min 55 sec) 

Warmup complete CPU 0 instructions: 50000003 cycles: 18820281 (Simulation time: 0 hr 8 min 55 sec) 

Heartbeat CPU 0 instructions: 60000001 cycles: 26648073 heartbeat IPC: 1.2775 cumulative IPC: 1.2775 (Simulation time: 0 hr 10 min 22 sec) 
Heartbeat CPU 0 instructions: 70000003 cycles: 36358924 heartbeat IPC: 1.02978 cumulative IPC: 1.14034 (Simulation time: 0 hr 11 min 56 sec) 
Heartbeat CPU 0 instructions: 80000002 cycles: 44679029 heartbeat IPC: 1.20191 cumulative IPC: 1.16015 (Simulation time: 0 hr 13 min 21 sec) 
Heartbeat CPU 0 instructions: 90000003 cycles: 52504011 heartbeat IPC: 1.27796 cumulative IPC: 1.18752 (Simulation time: 0 hr 14 min 36 sec) 
Heartbeat CPU 0 instructions: 100000001 cycles: 60682719 heartbeat IPC: 1.22269 cumulative IPC: 1.19439 (Simulation time: 0 hr 15 min 56 sec) 
Finished CPU 0 instructions: 50000002 cycles: 41862439 cumulative IPC: 1.19439 (Simulation time: 0 hr 15 min 56 sec) 

ChampSim completed all CPUs

Region of Interest Statistics

CPU 0 cumulative IPC: 1.19439 instructions: 50000002 cycles: 41862439
L1D TOTAL     ACCESS:   16585566  HIT:   15858417  MISS:     727149
L1D LOAD      ACCESS:    6362300  HIT:    5955452  MISS:     406848
L1D RFO       ACCESS:    4332630  HIT:    4290010  MISS:      42620
L1D PREFETCH  ACCESS:    5890636  HIT:    5612955  MISS:     277681
L1D WRITEBACK ACCESS:          0  HIT:          0  MISS:          0
L1D PREFETCH  REQUESTED:    6404144  ISSUED:    6223113  USEFUL:     116693  USELESS:     160862
L1D AVERAGE MISS LATENCY: 82.0939 cycles
L1I TOTAL     ACCESS:   10544792  HIT:    9467075  MISS:    1077717
L1I LOAD      ACCESS:    8466185  HIT:    8450595  MISS:      15590
L1I RFO       ACCESS:          0  HIT:          0  MISS:          0
L1I PREFETCH  ACCESS:    2078607  HIT:    1016480  MISS:    1062127
L1I WRITEBACK ACCESS:          0  HIT:          0  MISS:          0
L1I PREFETCH  REQUESTED:    2113726  ISSUED:    2113709  USEFUL:     786468  USELESS:     275606
L1I AVERAGE MISS LATENCY: 21.9742 cycles
L2C TOTAL     ACCESS:    2464162  HIT:    1912551  MISS:     551611
L2C LOAD      ACCESS:     347512  HIT:     109752  MISS:     237760
L2C RFO       ACCESS:      42352  HIT:      12437  MISS:      29915
L2C PREFETCH  ACCESS:    1898321  HIT:    1615114  MISS:     283207
L2C WRITEBACK ACCESS:     175977  HIT:     175248  MISS:        729
L2C PREFETCH  REQUESTED:    3105038  ISSUED:    3080732  USEFUL:      10798  USELESS:     273273
L2C AVERAGE MISS LATENCY: 116.702 cycles
LLC TOTAL     ACCESS:    1366992  HIT:     980417  MISS:     386575
LLC LOAD      ACCESS:     228414  HIT:     135008  MISS:      93406
LLC RFO       ACCESS:      29913  HIT:       5192  MISS:      24721
LLC PREFETCH  ACCESS:     974252  HIT:     706352  MISS:     267900
LLC WRITEBACK ACCESS:     134413  HIT:     133865  MISS:        548
LLC PREFETCH  REQUESTED:          0  ISSUED:          0  USEFUL:      41235  USELESS:     231290
LLC AVERAGE MISS LATENCY: 199.333 cycles
Major fault: 0 Minor fault: 10527
I-Shadow cache 408 bytes
Touched + WorthPF tables 24576 bytes 
MMA filter 174 bytes 
FNL filter 272 bytes 
TOTAL PREFETCHER STORAGE SIZE: 98134 bytes
CPU 0 L1I next line prefetcher final stats
CPU 0 L1D next line prefetcher final stats

DRAM Statistics
 CHANNEL 0
 RQ ROW_BUFFER_HIT:     102518  ROW_BUFFER_MISS:     283498
 DBUS_CONGESTED:     227547
 WQ ROW_BUFFER_HIT:      21405  ROW_BUFFER_MISS:      92647  FULL:          0

 AVG_CONGESTED_CYCLE: 5

CPU 0 Branch Prediction Accuracy: 98.1683% MPKI: 3.13642 Average ROB Occupancy at Mispredict: 88.0061

Branch types
NOT_BRANCH: 41438057 82.8761%
BRANCH_DIRECT_JUMP: 413829 0.827658%
BRANCH_INDIRECT: 47058 0.094116%
BRANCH_CONDITIONAL: 6843835 13.6877%
BRANCH_DIRECT_CALL: 536885 1.07377%
BRANCH_INDIRECT_CALL: 90642 0.181284%
BRANCH_RETURN: 629329 1.25866%
BRANCH_OTHER: 0 0%

