Initialize SIGNATURE TABLE
ST_SET: 1
ST_WAY: 256
ST_TAG_BIT: 16
ST_TAG_MASK: ffff

Initialize PATTERN TABLE
PT_SET: 512
PT_WAY: 4
SIG_DELTA_BIT: 7
C_SIG_BIT: 4
C_DELTA_BIT: 4

Initialize PREFETCH FILTER
FILTER_SET: 1024

*** ChampSim Multicore Out-of-Order Simulator ***

Warmup Instructions: 50000000
Simulation Instructions: 50000000
Number of CPUs: 1
LLC sets: 2048
LLC ways: 16
Off-chip DRAM Size: 4096 MB Channels: 1 Width: 64-bit Data Rate: 3200 MT/s

CPU 0 runs /Users/brandon/Documents/CoursesWi22/CSE240C/Homework1/ChampSim/ipc1_public/client_007.champsimtrace.xz
CPU 0 L1I next line prefetcher
CPU 0 L1D next line prefetcher
Heartbeat CPU 0 instructions: 10000001 cycles: 3641652 heartbeat IPC: 2.74601 cumulative IPC: 2.74601 (Simulation time: 0 hr 1 min 32 sec) 
Heartbeat CPU 0 instructions: 20000003 cycles: 7032978 heartbeat IPC: 2.9487 cumulative IPC: 2.84375 (Simulation time: 0 hr 3 min 16 sec) 
Heartbeat CPU 0 instructions: 30000000 cycles: 10904041 heartbeat IPC: 2.58327 cumulative IPC: 2.75127 (Simulation time: 0 hr 5 min 15 sec) 
Heartbeat CPU 0 instructions: 40000003 cycles: 15064089 heartbeat IPC: 2.40382 cumulative IPC: 2.65532 (Simulation time: 0 hr 7 min 10 sec) 
Heartbeat CPU 0 instructions: 50000002 cycles: 18468544 heartbeat IPC: 2.93733 cumulative IPC: 2.70731 (Simulation time: 0 hr 8 min 55 sec) 

Warmup complete CPU 0 instructions: 50000002 cycles: 18468544 (Simulation time: 0 hr 8 min 55 sec) 

Heartbeat CPU 0 instructions: 60000003 cycles: 25359212 heartbeat IPC: 1.45124 cumulative IPC: 1.45124 (Simulation time: 0 hr 10 min 43 sec) 
Heartbeat CPU 0 instructions: 70000003 cycles: 34216969 heartbeat IPC: 1.12895 cumulative IPC: 1.26997 (Simulation time: 0 hr 12 min 34 sec) 
Heartbeat CPU 0 instructions: 80000002 cycles: 39522696 heartbeat IPC: 1.88476 cumulative IPC: 1.4249 (Simulation time: 0 hr 13 min 49 sec) 
Heartbeat CPU 0 instructions: 90000002 cycles: 47128800 heartbeat IPC: 1.31473 cumulative IPC: 1.39566 (Simulation time: 0 hr 15 min 30 sec) 
Heartbeat CPU 0 instructions: 100000002 cycles: 56051196 heartbeat IPC: 1.12078 cumulative IPC: 1.3304 (Simulation time: 0 hr 16 min 38 sec) 
Finished CPU 0 instructions: 50000000 cycles: 37582652 cumulative IPC: 1.3304 (Simulation time: 0 hr 16 min 38 sec) 

ChampSim completed all CPUs

Region of Interest Statistics

CPU 0 cumulative IPC: 1.3304 instructions: 50000000 cycles: 37582652
L1D TOTAL     ACCESS:   21202564  HIT:   20033536  MISS:    1169028
L1D LOAD      ACCESS:    8372190  HIT:    7832284  MISS:     539906
L1D RFO       ACCESS:    4869012  HIT:    4777963  MISS:      91049
L1D PREFETCH  ACCESS:    7961362  HIT:    7423289  MISS:     538073
L1D WRITEBACK ACCESS:          0  HIT:          0  MISS:          0
L1D PREFETCH  REQUESTED:    8424447  ISSUED:    8180434  USEFUL:     157570  USELESS:     380519
L1D AVERAGE MISS LATENCY: 34.4307 cycles
L1I TOTAL     ACCESS:   10653742  HIT:    9505682  MISS:    1148060
L1I LOAD      ACCESS:    9127591  HIT:    9096565  MISS:      31026
L1I RFO       ACCESS:          0  HIT:          0  MISS:          0
L1I PREFETCH  ACCESS:    1526151  HIT:     409117  MISS:    1117034
L1I WRITEBACK ACCESS:          0  HIT:          0  MISS:          0
L1I PREFETCH  REQUESTED:    1551068  ISSUED:    1551068  USEFUL:     854082  USELESS:     263014
L1I AVERAGE MISS LATENCY: 16.2977 cycles
L2C TOTAL     ACCESS:    3303327  HIT:    3094499  MISS:     208828
L2C LOAD      ACCESS:     537051  HIT:     466930  MISS:      70121
L2C RFO       ACCESS:      89498  HIT:      48135  MISS:      41363
L2C PREFETCH  ACCESS:    2349141  HIT:    2251884  MISS:      97257
L2C WRITEBACK ACCESS:     327637  HIT:     327550  MISS:         87
L2C PREFETCH  REQUESTED:    2675165  ISSUED:    2671249  USEFUL:       9284  USELESS:      88170
L2C AVERAGE MISS LATENCY: 123.847 cycles
LLC TOTAL     ACCESS:    1000266  HIT:     831195  MISS:     169071
LLC LOAD      ACCESS:      70029  HIT:      34908  MISS:      35121
LLC RFO       ACCESS:      41363  HIT:       6993  MISS:      34370
LLC PREFETCH  ACCESS:     814796  HIT:     715515  MISS:      99281
LLC WRITEBACK ACCESS:      74078  HIT:      73779  MISS:        299
LLC PREFETCH  REQUESTED:          0  ISSUED:          0  USEFUL:      18565  USELESS:      81475
LLC AVERAGE MISS LATENCY: 181.837 cycles
Major fault: 0 Minor fault: 4407
I-Shadow cache 408 bytes
Touched + WorthPF tables 24576 bytes 
MMA filter 174 bytes 
FNL filter 272 bytes 
TOTAL PREFETCHER STORAGE SIZE: 98134 bytes
CPU 0 L1I next line prefetcher final stats
CPU 0 L1D next line prefetcher final stats

DRAM Statistics
 CHANNEL 0
 RQ ROW_BUFFER_HIT:      35787  ROW_BUFFER_MISS:     132981
 DBUS_CONGESTED:      94814
 WQ ROW_BUFFER_HIT:      12946  ROW_BUFFER_MISS:      45174  FULL:          0

 AVG_CONGESTED_CYCLE: 5

CPU 0 Branch Prediction Accuracy: 98.8607% MPKI: 1.8623 Average ROB Occupancy at Mispredict: 113.294

Branch types
NOT_BRANCH: 41826773 83.6535%
BRANCH_DIRECT_JUMP: 735330 1.47066%
BRANCH_INDIRECT: 269194 0.538388%
BRANCH_CONDITIONAL: 5957947 11.9159%
BRANCH_DIRECT_CALL: 368758 0.737516%
BRANCH_INDIRECT_CALL: 226975 0.45395%
BRANCH_RETURN: 614696 1.22939%
BRANCH_OTHER: 0 0%

