Initialize SIGNATURE TABLE
ST_SET: 1
ST_WAY: 256
ST_TAG_BIT: 16
ST_TAG_MASK: ffff

Initialize PATTERN TABLE
PT_SET: 512
PT_WAY: 4
SIG_DELTA_BIT: 7
C_SIG_BIT: 4
C_DELTA_BIT: 4

Initialize PREFETCH FILTER
FILTER_SET: 1024

*** ChampSim Multicore Out-of-Order Simulator ***

Warmup Instructions: 50000000
Simulation Instructions: 50000000
Number of CPUs: 1
LLC sets: 2048
LLC ways: 16
Off-chip DRAM Size: 4096 MB Channels: 1 Width: 64-bit Data Rate: 3200 MT/s

CPU 0 runs /Users/brandon/Documents/CoursesWi22/CSE240C/Homework1/ChampSim/ipc1_public/server_020.champsimtrace.xz
CPU 0 L1I next line prefetcher
CPU 0 L1D next line prefetcher
Heartbeat CPU 0 instructions: 10000003 cycles: 3621381 heartbeat IPC: 2.76138 cumulative IPC: 2.76138 (Simulation time: 0 hr 1 min 44 sec) 
Heartbeat CPU 0 instructions: 20000002 cycles: 7247094 heartbeat IPC: 2.75808 cumulative IPC: 2.75973 (Simulation time: 0 hr 3 min 46 sec) 
Heartbeat CPU 0 instructions: 30000001 cycles: 10865873 heartbeat IPC: 2.76336 cumulative IPC: 2.76094 (Simulation time: 0 hr 5 min 48 sec) 
Heartbeat CPU 0 instructions: 40000002 cycles: 14486035 heartbeat IPC: 2.76231 cumulative IPC: 2.76128 (Simulation time: 0 hr 7 min 46 sec) 
Heartbeat CPU 0 instructions: 50000001 cycles: 18119420 heartbeat IPC: 2.75225 cumulative IPC: 2.75947 (Simulation time: 0 hr 9 min 44 sec) 

Warmup complete CPU 0 instructions: 50000001 cycles: 18119420 (Simulation time: 0 hr 9 min 44 sec) 

Heartbeat CPU 0 instructions: 60000003 cycles: 35425692 heartbeat IPC: 0.577825 cumulative IPC: 0.577825 (Simulation time: 0 hr 12 min 21 sec) 
Heartbeat CPU 0 instructions: 70000002 cycles: 52674675 heartbeat IPC: 0.579744 cumulative IPC: 0.578783 (Simulation time: 0 hr 14 min 54 sec) 
Heartbeat CPU 0 instructions: 80000002 cycles: 69880623 heartbeat IPC: 0.581194 cumulative IPC: 0.579585 (Simulation time: 0 hr 16 min 51 sec) 
Heartbeat CPU 0 instructions: 90000001 cycles: 87053046 heartbeat IPC: 0.582329 cumulative IPC: 0.580268 (Simulation time: 0 hr 17 min 44 sec) 
Heartbeat CPU 0 instructions: 100000002 cycles: 104234212 heartbeat IPC: 0.582033 cumulative IPC: 0.58062 (Simulation time: 0 hr 18 min 21 sec) 
Finished CPU 0 instructions: 50000001 cycles: 86114792 cumulative IPC: 0.58062 (Simulation time: 0 hr 18 min 21 sec) 

ChampSim completed all CPUs

Region of Interest Statistics

CPU 0 cumulative IPC: 0.58062 instructions: 50000001 cycles: 86114792
L1D TOTAL     ACCESS:   18636142  HIT:   16431873  MISS:    2204269
L1D LOAD      ACCESS:    7049127  HIT:    6331473  MISS:     717654
L1D RFO       ACCESS:    5805340  HIT:    4859408  MISS:     945932
L1D PREFETCH  ACCESS:    5781675  HIT:    5240992  MISS:     540683
L1D WRITEBACK ACCESS:          0  HIT:          0  MISS:          0
L1D PREFETCH  REQUESTED:    7090199  ISSUED:    6889496  USEFUL:     201357  USELESS:     339245
L1D AVERAGE MISS LATENCY: 175.993 cycles
L1I TOTAL     ACCESS:   15085828  HIT:   12134473  MISS:    2951355
L1I LOAD      ACCESS:   10099873  HIT:   10066870  MISS:      33003
L1I RFO       ACCESS:          0  HIT:          0  MISS:          0
L1I PREFETCH  ACCESS:    4985955  HIT:    2067603  MISS:    2918352
L1I WRITEBACK ACCESS:          0  HIT:          0  MISS:          0
L1I PREFETCH  REQUESTED:    5176973  ISSUED:    5176973  USEFUL:    2546203  USELESS:     372175
L1I AVERAGE MISS LATENCY: 18.0474 cycles
L2C TOTAL     ACCESS:    7436993  HIT:    5579604  MISS:    1857389
L2C LOAD      ACCESS:     509233  HIT:     243882  MISS:     265351
L2C RFO       ACCESS:     945534  HIT:      21888  MISS:     923646
L2C PREFETCH  ACCESS:    4818629  HIT:    4152222  MISS:     666407
L2C WRITEBACK ACCESS:    1163597  HIT:    1161612  MISS:       1985
L2C PREFETCH  REQUESTED:    5074876  ISSUED:    5066956  USEFUL:      23227  USELESS:     641985
L2C AVERAGE MISS LATENCY: 213.772 cycles
LLC TOTAL     ACCESS:    4217274  HIT:    2751533  MISS:    1465741
LLC LOAD      ACCESS:     265242  HIT:     162762  MISS:     102480
LLC RFO       ACCESS:     923620  HIT:     137109  MISS:     786511
LLC PREFETCH  ACCESS:    1932293  HIT:    1357320  MISS:     574973
LLC WRITEBACK ACCESS:    1096119  HIT:    1094342  MISS:       1777
LLC PREFETCH  REQUESTED:          0  ISSUED:          0  USEFUL:      34438  USELESS:     540463
LLC AVERAGE MISS LATENCY: 281.325 cycles
Major fault: 0 Minor fault: 22091
I-Shadow cache 408 bytes
Touched + WorthPF tables 24576 bytes 
MMA filter 174 bytes 
FNL filter 272 bytes 
TOTAL PREFETCHER STORAGE SIZE: 98134 bytes
CPU 0 L1I next line prefetcher final stats
CPU 0 L1D next line prefetcher final stats

DRAM Statistics
 CHANNEL 0
 RQ ROW_BUFFER_HIT:     417594  ROW_BUFFER_MISS:    1046057
 DBUS_CONGESTED:    1467212
 WQ ROW_BUFFER_HIT:     245605  ROW_BUFFER_MISS:     647164  FULL:          0

 AVG_CONGESTED_CYCLE: 6

CPU 0 Branch Prediction Accuracy: 99.712% MPKI: 0.47638 Average ROB Occupancy at Mispredict: 214.108

Branch types
NOT_BRANCH: 41729595 83.4592%
BRANCH_DIRECT_JUMP: 458221 0.916442%
BRANCH_INDIRECT: 49088 0.098176%
BRANCH_CONDITIONAL: 5938538 11.8771%
BRANCH_DIRECT_CALL: 745133 1.49027%
BRANCH_INDIRECT_CALL: 167110 0.33422%
BRANCH_RETURN: 912224 1.82445%
BRANCH_OTHER: 0 0%

