Initialize SIGNATURE TABLE
ST_SET: 1
ST_WAY: 256
ST_TAG_BIT: 16
ST_TAG_MASK: ffff

Initialize PATTERN TABLE
PT_SET: 512
PT_WAY: 4
SIG_DELTA_BIT: 7
C_SIG_BIT: 4
C_DELTA_BIT: 4

Initialize PREFETCH FILTER
FILTER_SET: 1024

*** ChampSim Multicore Out-of-Order Simulator ***

Warmup Instructions: 50000000
Simulation Instructions: 50000000
Number of CPUs: 1
LLC sets: 2048
LLC ways: 16
Off-chip DRAM Size: 4096 MB Channels: 1 Width: 64-bit Data Rate: 3200 MT/s

CPU 0 runs /Users/brandon/Documents/CoursesWi22/CSE240C/Homework1/ChampSim/ipc1_public/server_002.champsimtrace.xz
CPU 0 L1I next line prefetcher
CPU 0 L1D next line prefetcher
Heartbeat CPU 0 instructions: 10000000 cycles: 3581204 heartbeat IPC: 2.79236 cumulative IPC: 2.79236 (Simulation time: 0 hr 1 min 38 sec) 
Heartbeat CPU 0 instructions: 20000002 cycles: 7169956 heartbeat IPC: 2.78648 cumulative IPC: 2.78942 (Simulation time: 0 hr 3 min 33 sec) 
Heartbeat CPU 0 instructions: 30000000 cycles: 10710669 heartbeat IPC: 2.82429 cumulative IPC: 2.80095 (Simulation time: 0 hr 5 min 28 sec) 
Heartbeat CPU 0 instructions: 40000000 cycles: 14260914 heartbeat IPC: 2.81671 cumulative IPC: 2.80487 (Simulation time: 0 hr 7 min 19 sec) 
Heartbeat CPU 0 instructions: 50000001 cycles: 17808685 heartbeat IPC: 2.81867 cumulative IPC: 2.80762 (Simulation time: 0 hr 9 min 13 sec) 

Warmup complete CPU 0 instructions: 50000001 cycles: 17808685 (Simulation time: 0 hr 9 min 13 sec) 

Heartbeat CPU 0 instructions: 60000000 cycles: 24250400 heartbeat IPC: 1.55238 cumulative IPC: 1.55238 (Simulation time: 0 hr 11 min 7 sec) 
Heartbeat CPU 0 instructions: 70000003 cycles: 30685376 heartbeat IPC: 1.55401 cumulative IPC: 1.55319 (Simulation time: 0 hr 12 min 57 sec) 
Heartbeat CPU 0 instructions: 80000003 cycles: 37122415 heartbeat IPC: 1.55351 cumulative IPC: 1.5533 (Simulation time: 0 hr 14 min 46 sec) 
Heartbeat CPU 0 instructions: 90000002 cycles: 43556803 heartbeat IPC: 1.55415 cumulative IPC: 1.55351 (Simulation time: 0 hr 16 min 24 sec) 
Heartbeat CPU 0 instructions: 100000003 cycles: 49990435 heartbeat IPC: 1.55433 cumulative IPC: 1.55368 (Simulation time: 0 hr 17 min 17 sec) 
Finished CPU 0 instructions: 50000002 cycles: 32181750 cumulative IPC: 1.55368 (Simulation time: 0 hr 17 min 17 sec) 

ChampSim completed all CPUs

Region of Interest Statistics

CPU 0 cumulative IPC: 1.55368 instructions: 50000002 cycles: 32181750
L1D TOTAL     ACCESS:   21525256  HIT:   21524447  MISS:        809
L1D LOAD      ACCESS:    6602302  HIT:    6601928  MISS:        374
L1D RFO       ACCESS:    8433021  HIT:    8432908  MISS:        113
L1D PREFETCH  ACCESS:    6489933  HIT:    6489611  MISS:        322
L1D WRITEBACK ACCESS:          0  HIT:          0  MISS:          0
L1D PREFETCH  REQUESTED:    6602355  ISSUED:    6497293  USEFUL:         92  USELESS:        231
L1D AVERAGE MISS LATENCY: 32.8529 cycles
L1I TOTAL     ACCESS:   14928475  HIT:   13840886  MISS:    1087589
L1I LOAD      ACCESS:    9851643  HIT:    9823053  MISS:      28590
L1I RFO       ACCESS:          0  HIT:          0  MISS:          0
L1I PREFETCH  ACCESS:    5076832  HIT:    4017833  MISS:    1058999
L1I WRITEBACK ACCESS:          0  HIT:          0  MISS:          0
L1I PREFETCH  REQUESTED:    5130642  ISSUED:    5130642  USEFUL:     897804  USELESS:     161191
L1I AVERAGE MISS LATENCY: 13.9547 cycles
L2C TOTAL     ACCESS:    1281511  HIT:    1281148  MISS:        363
L2C LOAD      ACCESS:       7420  HIT:       7335  MISS:         85
L2C RFO       ACCESS:        113  HIT:        108  MISS:          5
L2C PREFETCH  ACCESS:    1273642  HIT:    1273369  MISS:        273
L2C WRITEBACK ACCESS:        336  HIT:        336  MISS:          0
L2C PREFETCH  REQUESTED:     529515  ISSUED:     529502  USEFUL:        103  USELESS:        155
L2C AVERAGE MISS LATENCY: 115.961 cycles
LLC TOTAL     ACCESS:     121093  HIT:     120257  MISS:        836
LLC LOAD      ACCESS:         85  HIT:         73  MISS:         12
LLC RFO       ACCESS:          5  HIT:          3  MISS:          2
LLC PREFETCH  ACCESS:     120905  HIT:     120085  MISS:        820
LLC WRITEBACK ACCESS:         98  HIT:         96  MISS:          2
LLC PREFETCH  REQUESTED:          0  ISSUED:          0  USEFUL:         16  USELESS:        190
LLC AVERAGE MISS LATENCY: 413.263 cycles
Major fault: 0 Minor fault: 1867
I-Shadow cache 408 bytes
Touched + WorthPF tables 24576 bytes 
MMA filter 174 bytes 
FNL filter 272 bytes 
TOTAL PREFETCHER STORAGE SIZE: 98134 bytes
CPU 0 L1I next line prefetcher final stats
CPU 0 L1D next line prefetcher final stats

DRAM Statistics
 CHANNEL 0
 RQ ROW_BUFFER_HIT:        172  ROW_BUFFER_MISS:        662
 DBUS_CONGESTED:        626
 WQ ROW_BUFFER_HIT:         83  ROW_BUFFER_MISS:        492  FULL:          0

 AVG_CONGESTED_CYCLE: 6

CPU 0 Branch Prediction Accuracy: 99.8789% MPKI: 0.20388 Average ROB Occupancy at Mispredict: 279.906

Branch types
NOT_BRANCH: 41580695 83.1614%
BRANCH_DIRECT_JUMP: 461630 0.92326%
BRANCH_INDIRECT: 0 0%
BRANCH_CONDITIONAL: 5376437 10.7529%
BRANCH_DIRECT_CALL: 1175775 2.35155%
BRANCH_INDIRECT_CALL: 114840 0.22968%
BRANCH_RETURN: 1290625 2.58125%
BRANCH_OTHER: 0 0%

