Initialize SIGNATURE TABLE
ST_SET: 1
ST_WAY: 256
ST_TAG_BIT: 16
ST_TAG_MASK: ffff

Initialize PATTERN TABLE
PT_SET: 512
PT_WAY: 4
SIG_DELTA_BIT: 7
C_SIG_BIT: 4
C_DELTA_BIT: 4

Initialize PREFETCH FILTER
FILTER_SET: 1024

*** ChampSim Multicore Out-of-Order Simulator ***

Warmup Instructions: 50000000
Simulation Instructions: 50000000
Number of CPUs: 1
LLC sets: 2048
LLC ways: 16
Off-chip DRAM Size: 4096 MB Channels: 1 Width: 64-bit Data Rate: 3200 MT/s

CPU 0 runs /Users/brandon/Documents/CoursesWi22/CSE240C/Homework1/ChampSim/ipc1_public/server_004.champsimtrace.xz
CPU 0 L1I next line prefetcher
CPU 0 L1D next line prefetcher
Heartbeat CPU 0 instructions: 10000002 cycles: 3225876 heartbeat IPC: 3.09993 cumulative IPC: 3.09993 (Simulation time: 0 hr 1 min 36 sec) 
Heartbeat CPU 0 instructions: 20000002 cycles: 6558857 heartbeat IPC: 3.00032 cumulative IPC: 3.04931 (Simulation time: 0 hr 3 min 28 sec) 
Heartbeat CPU 0 instructions: 30000000 cycles: 11675843 heartbeat IPC: 1.95428 cumulative IPC: 2.56941 (Simulation time: 0 hr 5 min 45 sec) 
Heartbeat CPU 0 instructions: 40000003 cycles: 15421515 heartbeat IPC: 2.66975 cumulative IPC: 2.59378 (Simulation time: 0 hr 7 min 39 sec) 
Heartbeat CPU 0 instructions: 50000003 cycles: 18646031 heartbeat IPC: 3.10124 cumulative IPC: 2.68154 (Simulation time: 0 hr 9 min 27 sec) 

Warmup complete CPU 0 instructions: 50000003 cycles: 18646031 (Simulation time: 0 hr 9 min 27 sec) 

Heartbeat CPU 0 instructions: 60000002 cycles: 27217362 heartbeat IPC: 1.16668 cumulative IPC: 1.16668 (Simulation time: 0 hr 11 min 8 sec) 
Heartbeat CPU 0 instructions: 70000000 cycles: 35249335 heartbeat IPC: 1.24502 cumulative IPC: 1.20458 (Simulation time: 0 hr 12 min 47 sec) 
Heartbeat CPU 0 instructions: 80000001 cycles: 56184572 heartbeat IPC: 0.477664 cumulative IPC: 0.799179 (Simulation time: 0 hr 15 min 26 sec) 
Heartbeat CPU 0 instructions: 90000003 cycles: 70977507 heartbeat IPC: 0.675999 cumulative IPC: 0.764358 (Simulation time: 0 hr 16 min 46 sec) 
Heartbeat CPU 0 instructions: 100000003 cycles: 79471305 heartbeat IPC: 1.17733 cumulative IPC: 0.822027 (Simulation time: 0 hr 17 min 25 sec) 
Finished CPU 0 instructions: 50000000 cycles: 60825274 cumulative IPC: 0.822027 (Simulation time: 0 hr 17 min 25 sec) 

ChampSim completed all CPUs

Region of Interest Statistics

CPU 0 cumulative IPC: 0.822027 instructions: 50000000 cycles: 60825274
L1D TOTAL     ACCESS:   21622591  HIT:   17551567  MISS:    4071024
L1D LOAD      ACCESS:    8595276  HIT:    6576421  MISS:    2018855
L1D RFO       ACCESS:    4642539  HIT:    4535722  MISS:     106817
L1D PREFETCH  ACCESS:    8384776  HIT:    6439424  MISS:    1945352
L1D WRITEBACK ACCESS:          0  HIT:          0  MISS:          0
L1D PREFETCH  REQUESTED:    8630356  ISSUED:    8541163  USEFUL:     105796  USELESS:    1839549
L1D AVERAGE MISS LATENCY: 23.0552 cycles
L1I TOTAL     ACCESS:   13142074  HIT:   11523852  MISS:    1618222
L1I LOAD      ACCESS:   10708967  HIT:   10580989  MISS:     127978
L1I RFO       ACCESS:          0  HIT:          0  MISS:          0
L1I PREFETCH  ACCESS:    2433107  HIT:     942863  MISS:    1490244
L1I WRITEBACK ACCESS:          0  HIT:          0  MISS:          0
L1I PREFETCH  REQUESTED:    2582221  ISSUED:    2581737  USEFUL:    1011308  USELESS:     478861
L1I AVERAGE MISS LATENCY: 33.4239 cycles
L2C TOTAL     ACCESS:    7101032  HIT:    6005654  MISS:    1095378
L2C LOAD      ACCESS:    2052282  HIT:    1821200  MISS:     231082
L2C RFO       ACCESS:     105578  HIT:      57101  MISS:      48477
L2C PREFETCH  ACCESS:    4698143  HIT:    3883680  MISS:     814463
L2C WRITEBACK ACCESS:     245029  HIT:     243673  MISS:       1356
L2C PREFETCH  REQUESTED:    5845400  ISSUED:    5843943  USEFUL:      24591  USELESS:     789855
L2C AVERAGE MISS LATENCY: 59.8512 cycles
LLC TOTAL     ACCESS:    2329074  HIT:    2092946  MISS:     236128
LLC LOAD      ACCESS:     230607  HIT:     190373  MISS:      40234
LLC RFO       ACCESS:      48475  HIT:      34442  MISS:      14033
LLC PREFETCH  ACCESS:    1909035  HIT:    1727583  MISS:     181452
LLC WRITEBACK ACCESS:     140957  HIT:     140548  MISS:        409
LLC PREFETCH  REQUESTED:          0  ISSUED:          0  USEFUL:      15788  USELESS:     165357
LLC AVERAGE MISS LATENCY: 177.053 cycles
Major fault: 0 Minor fault: 7599
I-Shadow cache 408 bytes
Touched + WorthPF tables 24576 bytes 
MMA filter 174 bytes 
FNL filter 272 bytes 
TOTAL PREFETCHER STORAGE SIZE: 98134 bytes
CPU 0 L1I next line prefetcher final stats
CPU 0 L1D next line prefetcher final stats

DRAM Statistics
 CHANNEL 0
 RQ ROW_BUFFER_HIT:      50793  ROW_BUFFER_MISS:     184890
 DBUS_CONGESTED:     101851
 WQ ROW_BUFFER_HIT:      10685  ROW_BUFFER_MISS:      42823  FULL:          0

 AVG_CONGESTED_CYCLE: 5

CPU 0 Branch Prediction Accuracy: 98.1603% MPKI: 3.89124 Average ROB Occupancy at Mispredict: 67.5299

Branch types
NOT_BRANCH: 39423755 78.8475%
BRANCH_DIRECT_JUMP: 551642 1.10328%
BRANCH_INDIRECT: 139368 0.278736%
BRANCH_CONDITIONAL: 7920858 15.8417%
BRANCH_DIRECT_CALL: 776072 1.55214%
BRANCH_INDIRECT_CALL: 194644 0.389288%
BRANCH_RETURN: 993311 1.98662%
BRANCH_OTHER: 0 0%

