Initialize SIGNATURE TABLE
ST_SET: 1
ST_WAY: 256
ST_TAG_BIT: 16
ST_TAG_MASK: ffff

Initialize PATTERN TABLE
PT_SET: 512
PT_WAY: 4
SIG_DELTA_BIT: 7
C_SIG_BIT: 4
C_DELTA_BIT: 4

Initialize PREFETCH FILTER
FILTER_SET: 1024

*** ChampSim Multicore Out-of-Order Simulator ***

Warmup Instructions: 50000000
Simulation Instructions: 50000000
Number of CPUs: 1
LLC sets: 2048
LLC ways: 16
Off-chip DRAM Size: 4096 MB Channels: 1 Width: 64-bit Data Rate: 3200 MT/s

CPU 0 runs /Users/brandon/Documents/CoursesWi22/CSE240C/Homework1/ChampSim/ipc1_public/server_030.champsimtrace.xz
CPU 0 L1I next line prefetcher
CPU 0 L1D next line prefetcher
Heartbeat CPU 0 instructions: 10000003 cycles: 3505582 heartbeat IPC: 2.85259 cumulative IPC: 2.85259 (Simulation time: 0 hr 1 min 43 sec) 
Heartbeat CPU 0 instructions: 20000003 cycles: 7011141 heartbeat IPC: 2.85261 cumulative IPC: 2.8526 (Simulation time: 0 hr 3 min 36 sec) 
Heartbeat CPU 0 instructions: 30000000 cycles: 10515445 heartbeat IPC: 2.85363 cumulative IPC: 2.85295 (Simulation time: 0 hr 5 min 25 sec) 
Heartbeat CPU 0 instructions: 40000002 cycles: 14019973 heartbeat IPC: 2.85345 cumulative IPC: 2.85307 (Simulation time: 0 hr 7 min 22 sec) 
Heartbeat CPU 0 instructions: 50000002 cycles: 17527592 heartbeat IPC: 2.85094 cumulative IPC: 2.85265 (Simulation time: 0 hr 9 min 17 sec) 

Warmup complete CPU 0 instructions: 50000002 cycles: 17527592 (Simulation time: 0 hr 9 min 17 sec) 

Heartbeat CPU 0 instructions: 60000000 cycles: 24574273 heartbeat IPC: 1.41911 cumulative IPC: 1.41911 (Simulation time: 0 hr 11 min 8 sec) 
Heartbeat CPU 0 instructions: 70000000 cycles: 31619264 heartbeat IPC: 1.41945 cumulative IPC: 1.41928 (Simulation time: 0 hr 12 min 56 sec) 
Heartbeat CPU 0 instructions: 80000001 cycles: 38670539 heartbeat IPC: 1.41818 cumulative IPC: 1.41891 (Simulation time: 0 hr 14 min 38 sec) 
*** Reached end of trace for Core: 0 Repeating trace: /Users/brandon/Documents/CoursesWi22/CSE240C/Homework1/ChampSim/ipc1_public/server_030.champsimtrace.xz
Heartbeat CPU 0 instructions: 90000002 cycles: 45719090 heartbeat IPC: 1.41873 cumulative IPC: 1.41887 (Simulation time: 0 hr 16 min 9 sec) 
Heartbeat CPU 0 instructions: 100000002 cycles: 52758185 heartbeat IPC: 1.42064 cumulative IPC: 1.41922 (Simulation time: 0 hr 17 min 28 sec) 
Finished CPU 0 instructions: 50000000 cycles: 35230593 cumulative IPC: 1.41922 (Simulation time: 0 hr 17 min 28 sec) 

ChampSim completed all CPUs

Region of Interest Statistics

CPU 0 cumulative IPC: 1.41922 instructions: 50000000 cycles: 35230593
L1D TOTAL     ACCESS:   19165320  HIT:   17089624  MISS:    2075696
L1D LOAD      ACCESS:    6769513  HIT:    5714780  MISS:    1054733
L1D RFO       ACCESS:    6173108  HIT:    5887363  MISS:     285745
L1D PREFETCH  ACCESS:    6222699  HIT:    5487481  MISS:     735218
L1D WRITEBACK ACCESS:          0  HIT:          0  MISS:          0
L1D PREFETCH  REQUESTED:    6820594  ISSUED:    6685823  USEFUL:     180212  USELESS:     555099
L1D AVERAGE MISS LATENCY: 19.791 cycles
L1I TOTAL     ACCESS:   15579197  HIT:   11435325  MISS:    4143872
L1I LOAD      ACCESS:    9801351  HIT:    9707870  MISS:      93481
L1I RFO       ACCESS:          0  HIT:          0  MISS:          0
L1I PREFETCH  ACCESS:    5777846  HIT:    1727455  MISS:    4050391
L1I WRITEBACK ACCESS:          0  HIT:          0  MISS:          0
L1I PREFETCH  REQUESTED:    6056679  ISSUED:    6055707  USEFUL:    2961135  USELESS:    1089231
L1I AVERAGE MISS LATENCY: 18.5669 cycles
L2C TOTAL     ACCESS:    8496987  HIT:    7576084  MISS:     920903
L2C LOAD      ACCESS:     917469  HIT:     755696  MISS:     161773
L2C RFO       ACCESS:     283109  HIT:     219957  MISS:      63152
L2C PREFETCH  ACCESS:    6680887  HIT:    5989581  MISS:     691306
L2C WRITEBACK ACCESS:     615522  HIT:     610850  MISS:       4672
L2C PREFETCH  REQUESTED:    8348606  ISSUED:    8328447  USEFUL:      12963  USELESS:     678068
L2C AVERAGE MISS LATENCY: 34.8871 cycles
LLC TOTAL     ACCESS:    2945748  HIT:    2923268  MISS:      22480
LLC LOAD      ACCESS:     161640  HIT:     158742  MISS:       2898
LLC RFO       ACCESS:      63142  HIT:      61387  MISS:       1755
LLC PREFETCH  ACCESS:    2594305  HIT:    2576579  MISS:      17726
LLC WRITEBACK ACCESS:     126661  HIT:     126560  MISS:        101
LLC PREFETCH  REQUESTED:          0  ISSUED:          0  USEFUL:        927  USELESS:      15032
LLC AVERAGE MISS LATENCY: 147.875 cycles
Major fault: 0 Minor fault: 2040
I-Shadow cache 408 bytes
Touched + WorthPF tables 24576 bytes 
MMA filter 174 bytes 
FNL filter 272 bytes 
TOTAL PREFETCHER STORAGE SIZE: 98134 bytes
CPU 0 L1I next line prefetcher final stats
CPU 0 L1D next line prefetcher final stats

DRAM Statistics
 CHANNEL 0
 RQ ROW_BUFFER_HIT:       7083  ROW_BUFFER_MISS:      15296
 DBUS_CONGESTED:       7668
 WQ ROW_BUFFER_HIT:        176  ROW_BUFFER_MISS:       2506  FULL:          0

 AVG_CONGESTED_CYCLE: 5

CPU 0 Branch Prediction Accuracy: 99.8445% MPKI: 0.29148 Average ROB Occupancy at Mispredict: 175.756

Branch types
NOT_BRANCH: 40628081 81.2562%
BRANCH_DIRECT_JUMP: 490941 0.981882%
BRANCH_INDIRECT: 175854 0.351708%
BRANCH_CONDITIONAL: 6321415 12.6428%
BRANCH_DIRECT_CALL: 1002072 2.00414%
BRANCH_INDIRECT_CALL: 189783 0.379566%
BRANCH_RETURN: 1191851 2.3837%
BRANCH_OTHER: 0 0%

