Initialize SIGNATURE TABLE
ST_SET: 1
ST_WAY: 256
ST_TAG_BIT: 16
ST_TAG_MASK: ffff

Initialize PATTERN TABLE
PT_SET: 512
PT_WAY: 4
SIG_DELTA_BIT: 7
C_SIG_BIT: 4
C_DELTA_BIT: 4

Initialize PREFETCH FILTER
FILTER_SET: 1024

*** ChampSim Multicore Out-of-Order Simulator ***

Warmup Instructions: 50000000
Simulation Instructions: 50000000
Number of CPUs: 1
LLC sets: 2048
LLC ways: 16
Off-chip DRAM Size: 4096 MB Channels: 1 Width: 64-bit Data Rate: 3200 MT/s

CPU 0 runs /Users/brandon/Documents/CoursesWi22/CSE240C/Homework1/ChampSim/ipc1_public/server_019.champsimtrace.xz
CPU 0 L1I next line prefetcher
CPU 0 L1D next line prefetcher
Heartbeat CPU 0 instructions: 10000002 cycles: 3622995 heartbeat IPC: 2.76015 cumulative IPC: 2.76015 (Simulation time: 0 hr 1 min 45 sec) 
Heartbeat CPU 0 instructions: 20000003 cycles: 7246700 heartbeat IPC: 2.75961 cumulative IPC: 2.75988 (Simulation time: 0 hr 3 min 47 sec) 
Heartbeat CPU 0 instructions: 30000002 cycles: 10869565 heartbeat IPC: 2.76025 cumulative IPC: 2.76 (Simulation time: 0 hr 5 min 49 sec) 
Heartbeat CPU 0 instructions: 40000002 cycles: 14504235 heartbeat IPC: 2.75128 cumulative IPC: 2.75782 (Simulation time: 0 hr 7 min 47 sec) 
Heartbeat CPU 0 instructions: 50000001 cycles: 18127139 heartbeat IPC: 2.76022 cumulative IPC: 2.7583 (Simulation time: 0 hr 9 min 46 sec) 

Warmup complete CPU 0 instructions: 50000001 cycles: 18127139 (Simulation time: 0 hr 9 min 46 sec) 

Heartbeat CPU 0 instructions: 60000000 cycles: 37741629 heartbeat IPC: 0.509827 cumulative IPC: 0.509827 (Simulation time: 0 hr 12 min 30 sec) 
Heartbeat CPU 0 instructions: 70000002 cycles: 61112077 heartbeat IPC: 0.427891 cumulative IPC: 0.465279 (Simulation time: 0 hr 15 min 1 sec) 
Heartbeat CPU 0 instructions: 80000001 cycles: 81453907 heartbeat IPC: 0.491598 cumulative IPC: 0.473733 (Simulation time: 0 hr 16 min 53 sec) 
Heartbeat CPU 0 instructions: 90000002 cycles: 98754388 heartbeat IPC: 0.578019 cumulative IPC: 0.49611 (Simulation time: 0 hr 17 min 45 sec) 
Heartbeat CPU 0 instructions: 100000002 cycles: 116092499 heartbeat IPC: 0.576764 cumulative IPC: 0.510385 (Simulation time: 0 hr 18 min 22 sec) 
Finished CPU 0 instructions: 50000001 cycles: 97965360 cumulative IPC: 0.510385 (Simulation time: 0 hr 18 min 22 sec) 

ChampSim completed all CPUs

Region of Interest Statistics

CPU 0 cumulative IPC: 0.510385 instructions: 50000001 cycles: 97965360
L1D TOTAL     ACCESS:   18303989  HIT:   16080317  MISS:    2223672
L1D LOAD      ACCESS:    6976776  HIT:    6224852  MISS:     751924
L1D RFO       ACCESS:    5509463  HIT:    4607524  MISS:     901939
L1D PREFETCH  ACCESS:    5817750  HIT:    5247941  MISS:     569809
L1D WRITEBACK ACCESS:          0  HIT:          0  MISS:          0
L1D PREFETCH  REQUESTED:    7014178  ISSUED:    6828688  USEFUL:     200585  USELESS:     369133
L1D AVERAGE MISS LATENCY: 186.646 cycles
L1I TOTAL     ACCESS:   14185778  HIT:   11530086  MISS:    2655692
L1I LOAD      ACCESS:    9847227  HIT:    9817715  MISS:      29512
L1I RFO       ACCESS:          0  HIT:          0  MISS:          0
L1I PREFETCH  ACCESS:    4338551  HIT:    1712371  MISS:    2626180
L1I WRITEBACK ACCESS:          0  HIT:          0  MISS:          0
L1I PREFETCH  REQUESTED:    4518560  ISSUED:    4518560  USEFUL:    2272544  USELESS:     353623
L1I AVERAGE MISS LATENCY: 18.5524 cycles
L2C TOTAL     ACCESS:    7071018  HIT:    5178480  MISS:    1892538
L2C LOAD      ACCESS:     566143  HIT:     231967  MISS:     334176
L2C RFO       ACCESS:     901502  HIT:      18172  MISS:     883330
L2C PREFETCH  ACCESS:    4428722  HIT:    3755318  MISS:     673404
L2C WRITEBACK ACCESS:    1174651  HIT:    1173023  MISS:       1628
L2C PREFETCH  REQUESTED:    4884524  ISSUED:    4876542  USEFUL:      22976  USELESS:     648999
L2C AVERAGE MISS LATENCY: 222.19 cycles
LLC TOTAL     ACCESS:    4305816  HIT:    2699813  MISS:    1606003
LLC LOAD      ACCESS:     334049  HIT:     169000  MISS:     165049
LLC RFO       ACCESS:     883291  HIT:     114646  MISS:     768645
LLC PREFETCH  ACCESS:    1977699  HIT:    1307223  MISS:     670476
LLC WRITEBACK ACCESS:    1110777  HIT:    1108944  MISS:       1833
LLC PREFETCH  REQUESTED:          0  ISSUED:          0  USEFUL:      52410  USELESS:     617209
LLC AVERAGE MISS LATENCY: 277.94 cycles
Major fault: 0 Minor fault: 25692
I-Shadow cache 408 bytes
Touched + WorthPF tables 24576 bytes 
MMA filter 174 bytes 
FNL filter 272 bytes 
TOTAL PREFETCHER STORAGE SIZE: 98134 bytes
CPU 0 L1I next line prefetcher final stats
CPU 0 L1D next line prefetcher final stats

DRAM Statistics
 CHANNEL 0
 RQ ROW_BUFFER_HIT:     398084  ROW_BUFFER_MISS:    1205899
 DBUS_CONGESTED:    1596198
 WQ ROW_BUFFER_HIT:     254748  ROW_BUFFER_MISS:     682071  FULL:          0

 AVG_CONGESTED_CYCLE: 6

CPU 0 Branch Prediction Accuracy: 99.2186% MPKI: 1.32192 Average ROB Occupancy at Mispredict: 179.07

Branch types
NOT_BRANCH: 41540785 83.0816%
BRANCH_DIRECT_JUMP: 462384 0.924768%
BRANCH_INDIRECT: 45460 0.09092%
BRANCH_CONDITIONAL: 6209281 12.4186%
BRANCH_DIRECT_CALL: 666241 1.33248%
BRANCH_INDIRECT_CALL: 204728 0.409456%
BRANCH_RETURN: 870978 1.74196%
BRANCH_OTHER: 0 0%

