Initialize SIGNATURE TABLE
ST_SET: 1
ST_WAY: 256
ST_TAG_BIT: 16
ST_TAG_MASK: ffff

Initialize PATTERN TABLE
PT_SET: 512
PT_WAY: 4
SIG_DELTA_BIT: 7
C_SIG_BIT: 4
C_DELTA_BIT: 4

Initialize PREFETCH FILTER
FILTER_SET: 1024

*** ChampSim Multicore Out-of-Order Simulator ***

Warmup Instructions: 50000000
Simulation Instructions: 50000000
Number of CPUs: 1
LLC sets: 2048
LLC ways: 16
Off-chip DRAM Size: 4096 MB Channels: 1 Width: 64-bit Data Rate: 3200 MT/s

CPU 0 runs /Users/brandon/Documents/CoursesWi22/CSE240C/Homework1/ChampSim/ipc1_public/client_004.champsimtrace.xz
CPU 0 L1I next line prefetcher
CPU 0 L1D next line prefetcher
Heartbeat CPU 0 instructions: 10000000 cycles: 3592181 heartbeat IPC: 2.78382 cumulative IPC: 2.78382 (Simulation time: 0 hr 1 min 35 sec) 
Heartbeat CPU 0 instructions: 20000003 cycles: 7056608 heartbeat IPC: 2.88648 cumulative IPC: 2.83422 (Simulation time: 0 hr 3 min 17 sec) 
Heartbeat CPU 0 instructions: 30000000 cycles: 10647067 heartbeat IPC: 2.78516 cumulative IPC: 2.81768 (Simulation time: 0 hr 5 min 14 sec) 
Heartbeat CPU 0 instructions: 40000003 cycles: 14327612 heartbeat IPC: 2.71699 cumulative IPC: 2.79181 (Simulation time: 0 hr 7 min 16 sec) 
Heartbeat CPU 0 instructions: 50000001 cycles: 17845468 heartbeat IPC: 2.84264 cumulative IPC: 2.80183 (Simulation time: 0 hr 9 min 17 sec) 

Warmup complete CPU 0 instructions: 50000001 cycles: 17845468 (Simulation time: 0 hr 9 min 17 sec) 

Heartbeat CPU 0 instructions: 60000002 cycles: 25534210 heartbeat IPC: 1.3006 cumulative IPC: 1.3006 (Simulation time: 0 hr 10 min 48 sec) 
Heartbeat CPU 0 instructions: 70000001 cycles: 33316244 heartbeat IPC: 1.28501 cumulative IPC: 1.29276 (Simulation time: 0 hr 12 min 26 sec) 
Heartbeat CPU 0 instructions: 80000002 cycles: 41902495 heartbeat IPC: 1.16465 cumulative IPC: 1.24704 (Simulation time: 0 hr 14 min 5 sec) 
Heartbeat CPU 0 instructions: 90000000 cycles: 49921404 heartbeat IPC: 1.24705 cumulative IPC: 1.24704 (Simulation time: 0 hr 15 min 42 sec) 
Heartbeat CPU 0 instructions: 100000002 cycles: 57699078 heartbeat IPC: 1.28573 cumulative IPC: 1.25459 (Simulation time: 0 hr 17 min 19 sec) 
Finished CPU 0 instructions: 50000001 cycles: 39853610 cumulative IPC: 1.25459 (Simulation time: 0 hr 17 min 19 sec) 

ChampSim completed all CPUs

Region of Interest Statistics

CPU 0 cumulative IPC: 1.25459 instructions: 50000001 cycles: 39853610
L1D TOTAL     ACCESS:   21944021  HIT:   21055053  MISS:     888968
L1D LOAD      ACCESS:    8713064  HIT:    8317171  MISS:     395893
L1D RFO       ACCESS:    4810515  HIT:    4689163  MISS:     121352
L1D PREFETCH  ACCESS:    8420442  HIT:    8048719  MISS:     371723
L1D WRITEBACK ACCESS:          0  HIT:          0  MISS:          0
L1D PREFETCH  REQUESTED:    8752300  ISSUED:    8592556  USEFUL:     133207  USELESS:     238524
L1D AVERAGE MISS LATENCY: 29.8098 cycles
L1I TOTAL     ACCESS:   10813860  HIT:    9995394  MISS:     818466
L1I LOAD      ACCESS:    9383503  HIT:    9242485  MISS:     141018
L1I RFO       ACCESS:          0  HIT:          0  MISS:          0
L1I PREFETCH  ACCESS:    1430357  HIT:     752909  MISS:     677448
L1I WRITEBACK ACCESS:          0  HIT:          0  MISS:          0
L1I PREFETCH  REQUESTED:    1523117  ISSUED:    1523117  USEFUL:     457188  USELESS:     220254
L1I AVERAGE MISS LATENCY: 26.4227 cycles
L2C TOTAL     ACCESS:    2534983  HIT:    2240345  MISS:     294638
L2C LOAD      ACCESS:     479512  HIT:     417583  MISS:      61929
L2C RFO       ACCESS:     117406  HIT:      46272  MISS:      71134
L2C PREFETCH  ACCESS:    1716061  HIT:    1555065  MISS:     160996
L2C WRITEBACK ACCESS:     222004  HIT:     221425  MISS:        579
L2C PREFETCH  REQUESTED:    1852994  ISSUED:    1852359  USEFUL:      24677  USELESS:     135094
L2C AVERAGE MISS LATENCY: 88.4548 cycles
LLC TOTAL     ACCESS:     724515  HIT:     586319  MISS:     138196
LLC LOAD      ACCESS:      61913  HIT:      43974  MISS:      17939
LLC RFO       ACCESS:      71131  HIT:      40250  MISS:      30881
LLC PREFETCH  ACCESS:     491664  HIT:     402636  MISS:      89028
LLC WRITEBACK ACCESS:      99807  HIT:      99459  MISS:        348
LLC PREFETCH  REQUESTED:          0  ISSUED:          0  USEFUL:      18697  USELESS:      70384
LLC AVERAGE MISS LATENCY: 184.629 cycles
Major fault: 0 Minor fault: 3981
I-Shadow cache 408 bytes
Touched + WorthPF tables 24576 bytes 
MMA filter 174 bytes 
FNL filter 272 bytes 
TOTAL PREFETCHER STORAGE SIZE: 98134 bytes
CPU 0 L1I next line prefetcher final stats
CPU 0 L1D next line prefetcher final stats

DRAM Statistics
 CHANNEL 0
 RQ ROW_BUFFER_HIT:      35445  ROW_BUFFER_MISS:     102381
 DBUS_CONGESTED:      72850
 WQ ROW_BUFFER_HIT:       8169  ROW_BUFFER_MISS:      37077  FULL:          0

 AVG_CONGESTED_CYCLE: 6

CPU 0 Branch Prediction Accuracy: 94.1242% MPKI: 11.6089 Average ROB Occupancy at Mispredict: 56.15

Branch types
NOT_BRANCH: 40121086 80.2422%
BRANCH_DIRECT_JUMP: 644555 1.28911%
BRANCH_INDIRECT: 201946 0.403892%
BRANCH_CONDITIONAL: 7003557 14.0071%
BRANCH_DIRECT_CALL: 564821 1.12964%
BRANCH_INDIRECT_CALL: 445012 0.890024%
BRANCH_RETURN: 1018716 2.03743%
BRANCH_OTHER: 0 0%

