Initialize SIGNATURE TABLE
ST_SET: 1
ST_WAY: 256
ST_TAG_BIT: 16
ST_TAG_MASK: ffff

Initialize PATTERN TABLE
PT_SET: 512
PT_WAY: 4
SIG_DELTA_BIT: 7
C_SIG_BIT: 4
C_DELTA_BIT: 4

Initialize PREFETCH FILTER
FILTER_SET: 1024

*** ChampSim Multicore Out-of-Order Simulator ***

Warmup Instructions: 50000000
Simulation Instructions: 50000000
Number of CPUs: 1
LLC sets: 2048
LLC ways: 16
Off-chip DRAM Size: 4096 MB Channels: 1 Width: 64-bit Data Rate: 3200 MT/s

CPU 0 runs /Users/brandon/Documents/CoursesWi22/CSE240C/Homework1/ChampSim/ipc1_public/client_005.champsimtrace.xz
CPU 0 L1I next line prefetcher
CPU 0 L1D next line prefetcher
Heartbeat CPU 0 instructions: 10000001 cycles: 3291489 heartbeat IPC: 3.03814 cumulative IPC: 3.03814 (Simulation time: 0 hr 1 min 33 sec) 
Heartbeat CPU 0 instructions: 20000002 cycles: 6698843 heartbeat IPC: 2.93483 cumulative IPC: 2.98559 (Simulation time: 0 hr 3 min 21 sec) 
Heartbeat CPU 0 instructions: 30000001 cycles: 10392114 heartbeat IPC: 2.70763 cumulative IPC: 2.8868 (Simulation time: 0 hr 5 min 35 sec) 
Heartbeat CPU 0 instructions: 40000000 cycles: 14069922 heartbeat IPC: 2.71901 cumulative IPC: 2.84294 (Simulation time: 0 hr 7 min 43 sec) 
Heartbeat CPU 0 instructions: 50000001 cycles: 17343410 heartbeat IPC: 3.05485 cumulative IPC: 2.88294 (Simulation time: 0 hr 9 min 40 sec) 

Warmup complete CPU 0 instructions: 50000001 cycles: 17343410 (Simulation time: 0 hr 9 min 40 sec) 

Heartbeat CPU 0 instructions: 60000002 cycles: 24915344 heartbeat IPC: 1.32067 cumulative IPC: 1.32067 (Simulation time: 0 hr 11 min 20 sec) 
Heartbeat CPU 0 instructions: 70000003 cycles: 32182872 heartbeat IPC: 1.37598 cumulative IPC: 1.34776 (Simulation time: 0 hr 13 min 10 sec) 
Heartbeat CPU 0 instructions: 80000001 cycles: 39034597 heartbeat IPC: 1.45949 cumulative IPC: 1.38305 (Simulation time: 0 hr 15 min 10 sec) 
Heartbeat CPU 0 instructions: 90000002 cycles: 48509562 heartbeat IPC: 1.05541 cumulative IPC: 1.28344 (Simulation time: 0 hr 17 min 10 sec) 
Heartbeat CPU 0 instructions: 100000002 cycles: 56012036 heartbeat IPC: 1.33289 cumulative IPC: 1.29304 (Simulation time: 0 hr 18 min 16 sec) 
Finished CPU 0 instructions: 50000001 cycles: 38668626 cumulative IPC: 1.29304 (Simulation time: 0 hr 18 min 16 sec) 

ChampSim completed all CPUs

Region of Interest Statistics

CPU 0 cumulative IPC: 1.29304 instructions: 50000001 cycles: 38668626
L1D TOTAL     ACCESS:   19642821  HIT:   19106962  MISS:     535859
L1D LOAD      ACCESS:    6648773  HIT:    6477118  MISS:     171655
L1D RFO       ACCESS:    6796097  HIT:    6611706  MISS:     184391
L1D PREFETCH  ACCESS:    6197951  HIT:    6018138  MISS:     179813
L1D WRITEBACK ACCESS:          0  HIT:          0  MISS:          0
L1D PREFETCH  REQUESTED:    6672251  ISSUED:    6302368  USEFUL:      59585  USELESS:     120115
L1D AVERAGE MISS LATENCY: 92.4774 cycles
L1I TOTAL     ACCESS:   12350023  HIT:   11214108  MISS:    1135915
L1I LOAD      ACCESS:    9304325  HIT:    9125340  MISS:     178985
L1I RFO       ACCESS:          0  HIT:          0  MISS:          0
L1I PREFETCH  ACCESS:    3045698  HIT:    2088768  MISS:     956930
L1I WRITEBACK ACCESS:          0  HIT:          0  MISS:          0
L1I PREFETCH  REQUESTED:    3190418  ISSUED:    3190402  USEFUL:     625454  USELESS:     331430
L1I AVERAGE MISS LATENCY: 19.462 cycles
L2C TOTAL     ACCESS:    2431647  HIT:    2045514  MISS:     386133
L2C LOAD      ACCESS:     283974  HIT:     199355  MISS:      84619
L2C RFO       ACCESS:     180802  HIT:      31201  MISS:     149601
L2C PREFETCH  ACCESS:    1713814  HIT:    1562887  MISS:     150927
L2C WRITEBACK ACCESS:     253057  HIT:     252071  MISS:        986
L2C PREFETCH  REQUESTED:    1843565  ISSUED:    1842724  USEFUL:      15238  USELESS:     133838
L2C AVERAGE MISS LATENCY: 128.316 cycles
LLC TOTAL     ACCESS:     982668  HIT:     681265  MISS:     301403
LLC LOAD      ACCESS:      84597  HIT:      43227  MISS:      41370
LLC RFO       ACCESS:     149600  HIT:      19794  MISS:     129806
LLC PREFETCH  ACCESS:     548771  HIT:     419413  MISS:     129358
LLC WRITEBACK ACCESS:     199700  HIT:     198831  MISS:        869
LLC PREFETCH  REQUESTED:          0  ISSUED:          0  USEFUL:      27599  USELESS:      97483
LLC AVERAGE MISS LATENCY: 169.599 cycles
Major fault: 0 Minor fault: 6084
I-Shadow cache 408 bytes
Touched + WorthPF tables 24576 bytes 
MMA filter 174 bytes 
FNL filter 272 bytes 
TOTAL PREFETCHER STORAGE SIZE: 98134 bytes
CPU 0 L1I next line prefetcher final stats
CPU 0 L1D next line prefetcher final stats

DRAM Statistics
 CHANNEL 0
 RQ ROW_BUFFER_HIT:      97245  ROW_BUFFER_MISS:     203281
 DBUS_CONGESTED:     244796
 WQ ROW_BUFFER_HIT:      51123  ROW_BUFFER_MISS:     131651  FULL:          0

 AVG_CONGESTED_CYCLE: 6

CPU 0 Branch Prediction Accuracy: 97.8666% MPKI: 3.9013 Average ROB Occupancy at Mispredict: 88.3585

Branch types
NOT_BRANCH: 40856330 81.7127%
BRANCH_DIRECT_JUMP: 484667 0.969334%
BRANCH_INDIRECT: 85086 0.170172%
BRANCH_CONDITIONAL: 6230887 12.4618%
BRANCH_DIRECT_CALL: 1028917 2.05783%
BRANCH_INDIRECT_CALL: 141825 0.28365%
BRANCH_RETURN: 1171986 2.34397%
BRANCH_OTHER: 0 0%

