Initialize SIGNATURE TABLE
ST_SET: 1
ST_WAY: 256
ST_TAG_BIT: 16
ST_TAG_MASK: ffff

Initialize PATTERN TABLE
PT_SET: 512
PT_WAY: 4
SIG_DELTA_BIT: 7
C_SIG_BIT: 4
C_DELTA_BIT: 4

Initialize PREFETCH FILTER
FILTER_SET: 1024

*** ChampSim Multicore Out-of-Order Simulator ***

Warmup Instructions: 50000000
Simulation Instructions: 50000000
Number of CPUs: 1
LLC sets: 2048
LLC ways: 16
Off-chip DRAM Size: 4096 MB Channels: 1 Width: 64-bit Data Rate: 3200 MT/s

CPU 0 runs /Users/brandon/Documents/CoursesWi22/CSE240C/Homework1/ChampSim/ipc1_public/client_008.champsimtrace.xz
CPU 0 L1I next line prefetcher
CPU 0 L1D next line prefetcher
Heartbeat CPU 0 instructions: 10000001 cycles: 3751505 heartbeat IPC: 2.6656 cumulative IPC: 2.6656 (Simulation time: 0 hr 1 min 46 sec) 
Heartbeat CPU 0 instructions: 20000001 cycles: 7524735 heartbeat IPC: 2.65025 cumulative IPC: 2.6579 (Simulation time: 0 hr 3 min 47 sec) 
Heartbeat CPU 0 instructions: 30000000 cycles: 11248843 heartbeat IPC: 2.68521 cumulative IPC: 2.66694 (Simulation time: 0 hr 6 min 1 sec) 
Heartbeat CPU 0 instructions: 40000002 cycles: 15039708 heartbeat IPC: 2.63792 cumulative IPC: 2.65963 (Simulation time: 0 hr 8 min 14 sec) 
Heartbeat CPU 0 instructions: 50000003 cycles: 18828125 heartbeat IPC: 2.63963 cumulative IPC: 2.6556 (Simulation time: 0 hr 10 min 26 sec) 

Warmup complete CPU 0 instructions: 50000003 cycles: 18828125 (Simulation time: 0 hr 10 min 26 sec) 

Heartbeat CPU 0 instructions: 60000000 cycles: 26965903 heartbeat IPC: 1.22884 cumulative IPC: 1.22884 (Simulation time: 0 hr 12 min 36 sec) 
Heartbeat CPU 0 instructions: 70000000 cycles: 34876720 heartbeat IPC: 1.26409 cumulative IPC: 1.24621 (Simulation time: 0 hr 15 min 3 sec) 
Heartbeat CPU 0 instructions: 80000001 cycles: 43915329 heartbeat IPC: 1.10637 cumulative IPC: 1.19583 (Simulation time: 0 hr 16 min 51 sec) 
Heartbeat CPU 0 instructions: 90000001 cycles: 51290620 heartbeat IPC: 1.35588 cumulative IPC: 1.23219 (Simulation time: 0 hr 18 min 7 sec) 
Heartbeat CPU 0 instructions: 100000001 cycles: 59319215 heartbeat IPC: 1.24555 cumulative IPC: 1.23484 (Simulation time: 0 hr 18 min 53 sec) 
Finished CPU 0 instructions: 50000002 cycles: 40491091 cumulative IPC: 1.23484 (Simulation time: 0 hr 18 min 53 sec) 

ChampSim completed all CPUs

Region of Interest Statistics

CPU 0 cumulative IPC: 1.23484 instructions: 50000002 cycles: 40491091
L1D TOTAL     ACCESS:   20486833  HIT:   18858251  MISS:    1628582
L1D LOAD      ACCESS:    8064278  HIT:    7264688  MISS:     799590
L1D RFO       ACCESS:    4815320  HIT:    4705812  MISS:     109508
L1D PREFETCH  ACCESS:    7607235  HIT:    6887751  MISS:     719484
L1D WRITEBACK ACCESS:          0  HIT:          0  MISS:          0
L1D PREFETCH  REQUESTED:    8132994  ISSUED:    7964338  USEFUL:     199626  USELESS:     519863
L1D AVERAGE MISS LATENCY: 32.6874 cycles
L1I TOTAL     ACCESS:   11429630  HIT:   10400540  MISS:    1029090
L1I LOAD      ACCESS:    9758474  HIT:    9682600  MISS:      75874
L1I RFO       ACCESS:          0  HIT:          0  MISS:          0
L1I PREFETCH  ACCESS:    1671156  HIT:     717940  MISS:     953216
L1I WRITEBACK ACCESS:          0  HIT:          0  MISS:          0
L1I PREFETCH  REQUESTED:    1740488  ISSUED:    1740488  USEFUL:     707178  USELESS:     246120
L1I AVERAGE MISS LATENCY: 17.2192 cycles
L2C TOTAL     ACCESS:    3735846  HIT:    3282174  MISS:     453672
L2C LOAD      ACCESS:     792249  HIT:     625700  MISS:     166549
L2C RFO       ACCESS:     104314  HIT:      18414  MISS:      85900
L2C PREFETCH  ACCESS:    2657284  HIT:    2456447  MISS:     200837
L2C WRITEBACK ACCESS:     181999  HIT:     181613  MISS:        386
L2C PREFETCH  REQUESTED:    3113759  ISSUED:    3108889  USEFUL:      18514  USELESS:     184842
L2C AVERAGE MISS LATENCY: 76.4929 cycles
LLC TOTAL     ACCESS:    1419756  HIT:    1238801  MISS:     180955
LLC LOAD      ACCESS:     166448  HIT:     144789  MISS:      21659
LLC RFO       ACCESS:      85897  HIT:      16577  MISS:      69320
LLC PREFETCH  ACCESS:    1031731  HIT:     942131  MISS:      89600
LLC WRITEBACK ACCESS:     135680  HIT:     135304  MISS:        376
LLC PREFETCH  REQUESTED:          0  ISSUED:          0  USEFUL:      24706  USELESS:      73443
LLC AVERAGE MISS LATENCY: 167.731 cycles
Major fault: 0 Minor fault: 5306
I-Shadow cache 408 bytes
Touched + WorthPF tables 24576 bytes 
MMA filter 174 bytes 
FNL filter 272 bytes 
TOTAL PREFETCHER STORAGE SIZE: 98134 bytes
CPU 0 L1I next line prefetcher final stats
CPU 0 L1D next line prefetcher final stats

DRAM Statistics
 CHANNEL 0
 RQ ROW_BUFFER_HIT:      52175  ROW_BUFFER_MISS:     128394
 DBUS_CONGESTED:     100133
 WQ ROW_BUFFER_HIT:      23711  ROW_BUFFER_MISS:      66245  FULL:          0

 AVG_CONGESTED_CYCLE: 6

CPU 0 Branch Prediction Accuracy: 98.6482% MPKI: 3.1551 Average ROB Occupancy at Mispredict: 96.7827

Branch types
NOT_BRANCH: 38329598 76.6592%
BRANCH_DIRECT_JUMP: 510116 1.02023%
BRANCH_INDIRECT: 225730 0.45146%
BRANCH_CONDITIONAL: 8366762 16.7335%
BRANCH_DIRECT_CALL: 600748 1.2015%
BRANCH_INDIRECT_CALL: 682990 1.36598%
BRANCH_RETURN: 1283974 2.56795%
BRANCH_OTHER: 0 0%

