Initialize SIGNATURE TABLE
ST_SET: 1
ST_WAY: 256
ST_TAG_BIT: 16
ST_TAG_MASK: ffff

Initialize PATTERN TABLE
PT_SET: 512
PT_WAY: 4
SIG_DELTA_BIT: 7
C_SIG_BIT: 4
C_DELTA_BIT: 4

Initialize PREFETCH FILTER
FILTER_SET: 1024

*** ChampSim Multicore Out-of-Order Simulator ***

Warmup Instructions: 50000000
Simulation Instructions: 50000000
Number of CPUs: 1
LLC sets: 2048
LLC ways: 16
Off-chip DRAM Size: 4096 MB Channels: 1 Width: 64-bit Data Rate: 3200 MT/s

CPU 0 runs /Users/brandon/Documents/CoursesWi22/CSE240C/Homework1/ChampSim/ipc1_public/client_006.champsimtrace.xz
CPU 0 L1I next line prefetcher
CPU 0 L1D next line prefetcher
Heartbeat CPU 0 instructions: 10000003 cycles: 4267450 heartbeat IPC: 2.34332 cumulative IPC: 2.34332 (Simulation time: 0 hr 1 min 46 sec) 
Heartbeat CPU 0 instructions: 20000000 cycles: 8307456 heartbeat IPC: 2.47524 cumulative IPC: 2.40748 (Simulation time: 0 hr 3 min 42 sec) 
Heartbeat CPU 0 instructions: 30000003 cycles: 11371478 heartbeat IPC: 3.26369 cumulative IPC: 2.63818 (Simulation time: 0 hr 5 min 28 sec) 
Heartbeat CPU 0 instructions: 40000000 cycles: 14716437 heartbeat IPC: 2.98957 cumulative IPC: 2.71805 (Simulation time: 0 hr 7 min 20 sec) 
Heartbeat CPU 0 instructions: 50000003 cycles: 18821147 heartbeat IPC: 2.43623 cumulative IPC: 2.65659 (Simulation time: 0 hr 9 min 25 sec) 

Warmup complete CPU 0 instructions: 50000003 cycles: 18821147 (Simulation time: 0 hr 9 min 25 sec) 

Heartbeat CPU 0 instructions: 60000001 cycles: 26667243 heartbeat IPC: 1.27452 cumulative IPC: 1.27452 (Simulation time: 0 hr 10 min 58 sec) 
Heartbeat CPU 0 instructions: 70000003 cycles: 36372039 heartbeat IPC: 1.03042 cumulative IPC: 1.13954 (Simulation time: 0 hr 12 min 45 sec) 
Heartbeat CPU 0 instructions: 80000002 cycles: 44700678 heartbeat IPC: 1.20068 cumulative IPC: 1.15922 (Simulation time: 0 hr 14 min 23 sec) 
Heartbeat CPU 0 instructions: 90000003 cycles: 52530754 heartbeat IPC: 1.27713 cumulative IPC: 1.18661 (Simulation time: 0 hr 15 min 50 sec) 
Heartbeat CPU 0 instructions: 100000001 cycles: 60731038 heartbeat IPC: 1.21947 cumulative IPC: 1.19304 (Simulation time: 0 hr 17 min 22 sec) 
Finished CPU 0 instructions: 50000002 cycles: 41909892 cumulative IPC: 1.19304 (Simulation time: 0 hr 17 min 22 sec) 

ChampSim completed all CPUs

Region of Interest Statistics

CPU 0 cumulative IPC: 1.19304 instructions: 50000002 cycles: 41909892
L1D TOTAL     ACCESS:   16592672  HIT:   15865477  MISS:     727195
L1D LOAD      ACCESS:    6365470  HIT:    5959139  MISS:     406331
L1D RFO       ACCESS:    4332799  HIT:    4290176  MISS:      42623
L1D PREFETCH  ACCESS:    5894403  HIT:    5616162  MISS:     278241
L1D WRITEBACK ACCESS:          0  HIT:          0  MISS:          0
L1D PREFETCH  REQUESTED:    6406719  ISSUED:    6225920  USEFUL:     117224  USELESS:     160892
L1D AVERAGE MISS LATENCY: 81.5232 cycles
L1I TOTAL     ACCESS:   10453979  HIT:    9505951  MISS:     948028
L1I LOAD      ACCESS:    8446969  HIT:    8398780  MISS:      48189
L1I RFO       ACCESS:          0  HIT:          0  MISS:          0
L1I PREFETCH  ACCESS:    2007010  HIT:    1107171  MISS:     899839
L1I WRITEBACK ACCESS:          0  HIT:          0  MISS:          0
L1I PREFETCH  REQUESTED:    2089005  ISSUED:    2089005  USEFUL:     719729  USELESS:     180066
L1I AVERAGE MISS LATENCY: 20.6346 cycles
L2C TOTAL     ACCESS:    2313767  HIT:    1763799  MISS:     549968
L2C LOAD      ACCESS:     347996  HIT:     111169  MISS:     236827
L2C RFO       ACCESS:      42359  HIT:      12415  MISS:      29944
L2C PREFETCH  ACCESS:    1747434  HIT:    1464964  MISS:     282470
L2C WRITEBACK ACCESS:     175978  HIT:     175251  MISS:        727
L2C PREFETCH  REQUESTED:    2820550  ISSUED:    2798748  USEFUL:      10821  USELESS:     272590
L2C AVERAGE MISS LATENCY: 115.309 cycles
LLC TOTAL     ACCESS:    1321877  HIT:     937484  MISS:     384393
LLC LOAD      ACCESS:     227082  HIT:     134513  MISS:      92569
LLC RFO       ACCESS:      29943  HIT:       5199  MISS:      24744
LLC PREFETCH  ACCESS:     930447  HIT:     663898  MISS:     266549
LLC WRITEBACK ACCESS:     134405  HIT:     133874  MISS:        531
LLC PREFETCH  REQUESTED:          0  ISSUED:          0  USEFUL:      41073  USELESS:     228966
LLC AVERAGE MISS LATENCY: 196.45 cycles
Major fault: 0 Minor fault: 10527
I-Shadow cache 408 bytes
Touched + WorthPF tables 24576 bytes 
MMA filter 174 bytes 
FNL filter 272 bytes 
TOTAL PREFETCHER STORAGE SIZE: 98134 bytes
CPU 0 L1I next line prefetcher final stats
CPU 0 L1D next line prefetcher final stats

DRAM Statistics
 CHANNEL 0
 RQ ROW_BUFFER_HIT:     100677  ROW_BUFFER_MISS:     283171
 DBUS_CONGESTED:     225961
 WQ ROW_BUFFER_HIT:      21564  ROW_BUFFER_MISS:      92877  FULL:          0

 AVG_CONGESTED_CYCLE: 5

CPU 0 Branch Prediction Accuracy: 98.1683% MPKI: 3.13642 Average ROB Occupancy at Mispredict: 87.1112

Branch types
NOT_BRANCH: 41438057 82.8761%
BRANCH_DIRECT_JUMP: 413829 0.827658%
BRANCH_INDIRECT: 47058 0.094116%
BRANCH_CONDITIONAL: 6843835 13.6877%
BRANCH_DIRECT_CALL: 536885 1.07377%
BRANCH_INDIRECT_CALL: 90642 0.181284%
BRANCH_RETURN: 629329 1.25866%
BRANCH_OTHER: 0 0%

