Initialize SIGNATURE TABLE
ST_SET: 1
ST_WAY: 256
ST_TAG_BIT: 16
ST_TAG_MASK: ffff

Initialize PATTERN TABLE
PT_SET: 512
PT_WAY: 4
SIG_DELTA_BIT: 7
C_SIG_BIT: 4
C_DELTA_BIT: 4

Initialize PREFETCH FILTER
FILTER_SET: 1024

*** ChampSim Multicore Out-of-Order Simulator ***

Warmup Instructions: 50000000
Simulation Instructions: 50000000
Number of CPUs: 1
LLC sets: 2048
LLC ways: 16
Off-chip DRAM Size: 4096 MB Channels: 1 Width: 64-bit Data Rate: 3200 MT/s

CPU 0 runs /Users/brandon/Documents/CoursesWi22/CSE240C/Homework1/ChampSim/ipc1_public/server_028.champsimtrace.xz
CPU 0 L1I next line prefetcher
CPU 0 L1D next line prefetcher
Heartbeat CPU 0 instructions: 10000001 cycles: 3493021 heartbeat IPC: 2.86285 cumulative IPC: 2.86285 (Simulation time: 0 hr 1 min 57 sec) 
Heartbeat CPU 0 instructions: 20000002 cycles: 6986392 heartbeat IPC: 2.86256 cumulative IPC: 2.86271 (Simulation time: 0 hr 3 min 52 sec) 
Heartbeat CPU 0 instructions: 30000001 cycles: 10477269 heartbeat IPC: 2.86461 cumulative IPC: 2.86334 (Simulation time: 0 hr 5 min 46 sec) 
Heartbeat CPU 0 instructions: 40000002 cycles: 13975235 heartbeat IPC: 2.8588 cumulative IPC: 2.86221 (Simulation time: 0 hr 7 min 41 sec) 
Heartbeat CPU 0 instructions: 50000001 cycles: 17468856 heartbeat IPC: 2.86236 cumulative IPC: 2.86224 (Simulation time: 0 hr 9 min 40 sec) 

Warmup complete CPU 0 instructions: 50000001 cycles: 17468856 (Simulation time: 0 hr 9 min 40 sec) 

Heartbeat CPU 0 instructions: 60000000 cycles: 25067227 heartbeat IPC: 1.31607 cumulative IPC: 1.31607 (Simulation time: 0 hr 11 min 31 sec) 
Heartbeat CPU 0 instructions: 70000000 cycles: 32657256 heartbeat IPC: 1.31752 cumulative IPC: 1.31679 (Simulation time: 0 hr 13 min 22 sec) 
Heartbeat CPU 0 instructions: 80000000 cycles: 40250705 heartbeat IPC: 1.31692 cumulative IPC: 1.31684 (Simulation time: 0 hr 15 min 1 sec) 
*** Reached end of trace for Core: 0 Repeating trace: /Users/brandon/Documents/CoursesWi22/CSE240C/Homework1/ChampSim/ipc1_public/server_028.champsimtrace.xz
Heartbeat CPU 0 instructions: 90000000 cycles: 47816025 heartbeat IPC: 1.32182 cumulative IPC: 1.31808 (Simulation time: 0 hr 16 min 41 sec) 
Heartbeat CPU 0 instructions: 100000003 cycles: 55342545 heartbeat IPC: 1.32864 cumulative IPC: 1.32018 (Simulation time: 0 hr 18 min 4 sec) 
Finished CPU 0 instructions: 50000002 cycles: 37873689 cumulative IPC: 1.32018 (Simulation time: 0 hr 18 min 4 sec) 

ChampSim completed all CPUs

Region of Interest Statistics

CPU 0 cumulative IPC: 1.32018 instructions: 50000002 cycles: 37873689
L1D TOTAL     ACCESS:   19121749  HIT:   17048277  MISS:    2073472
L1D LOAD      ACCESS:    6764739  HIT:    5716347  MISS:    1048392
L1D RFO       ACCESS:    6097552  HIT:    5813738  MISS:     283814
L1D PREFETCH  ACCESS:    6259458  HIT:    5518192  MISS:     741266
L1D WRITEBACK ACCESS:          0  HIT:          0  MISS:          0
L1D PREFETCH  REQUESTED:    6826181  ISSUED:    6721579  USEFUL:     174603  USELESS:     566666
L1D AVERAGE MISS LATENCY: 22.0263 cycles
L1I TOTAL     ACCESS:   14691788  HIT:   10856778  MISS:    3835010
L1I LOAD      ACCESS:    9599022  HIT:    9188142  MISS:     410880
L1I RFO       ACCESS:          0  HIT:          0  MISS:          0
L1I PREFETCH  ACCESS:    5092766  HIT:    1668636  MISS:    3424130
L1I WRITEBACK ACCESS:          0  HIT:          0  MISS:          0
L1I PREFETCH  REQUESTED:    5740903  ISSUED:    5740903  USEFUL:    2551457  USELESS:     872657
L1I AVERAGE MISS LATENCY: 16.044 cycles
L2C TOTAL     ACCESS:    8074214  HIT:    7223514  MISS:     850700
L2C LOAD      ACCESS:     925524  HIT:     761635  MISS:     163889
L2C RFO       ACCESS:     281428  HIT:     216198  MISS:      65230
L2C PREFETCH  ACCESS:    6262382  HIT:    5643871  MISS:     618511
L2C WRITEBACK ACCESS:     604880  HIT:     601810  MISS:       3070
L2C PREFETCH  REQUESTED:    7929133  ISSUED:    7910522  USEFUL:      12573  USELESS:     605708
L2C AVERAGE MISS LATENCY: 40.4594 cycles
LLC TOTAL     ACCESS:    2832559  HIT:    2759287  MISS:      73272
LLC LOAD      ACCESS:     163842  HIT:     147522  MISS:      16320
LLC RFO       ACCESS:      65220  HIT:      63276  MISS:       1944
LLC PREFETCH  ACCESS:    2480565  HIT:    2425915  MISS:      54650
LLC WRITEBACK ACCESS:     122932  HIT:     122574  MISS:        358
LLC PREFETCH  REQUESTED:          0  ISSUED:          0  USEFUL:       2382  USELESS:      52186
LLC AVERAGE MISS LATENCY: 157.644 cycles
Major fault: 0 Minor fault: 6038
I-Shadow cache 408 bytes
Touched + WorthPF tables 24576 bytes 
MMA filter 174 bytes 
FNL filter 272 bytes 
TOTAL PREFETCHER STORAGE SIZE: 98134 bytes
CPU 0 L1I next line prefetcher final stats
CPU 0 L1D next line prefetcher final stats

DRAM Statistics
 CHANNEL 0
 RQ ROW_BUFFER_HIT:      20516  ROW_BUFFER_MISS:      52398
 DBUS_CONGESTED:      28615
 WQ ROW_BUFFER_HIT:        378  ROW_BUFFER_MISS:       3150  FULL:          0

 AVG_CONGESTED_CYCLE: 4

CPU 0 Branch Prediction Accuracy: 99.7093% MPKI: 0.54708 Average ROB Occupancy at Mispredict: 145.444

Branch types
NOT_BRANCH: 40590998 81.182%
BRANCH_DIRECT_JUMP: 523493 1.04699%
BRANCH_INDIRECT: 166997 0.333994%
BRANCH_CONDITIONAL: 6365196 12.7304%
BRANCH_DIRECT_CALL: 989495 1.97899%
BRANCH_INDIRECT_CALL: 187203 0.374406%
BRANCH_RETURN: 1176699 2.3534%
BRANCH_OTHER: 0 0%

