Initialize SIGNATURE TABLE
ST_SET: 1
ST_WAY: 256
ST_TAG_BIT: 16
ST_TAG_MASK: ffff

Initialize PATTERN TABLE
PT_SET: 512
PT_WAY: 4
SIG_DELTA_BIT: 7
C_SIG_BIT: 4
C_DELTA_BIT: 4

Initialize PREFETCH FILTER
FILTER_SET: 1024

*** ChampSim Multicore Out-of-Order Simulator ***

Warmup Instructions: 50000000
Simulation Instructions: 50000000
Number of CPUs: 1
LLC sets: 2048
LLC ways: 16
Off-chip DRAM Size: 4096 MB Channels: 1 Width: 64-bit Data Rate: 3200 MT/s

CPU 0 runs /Users/brandon/Documents/CoursesWi22/CSE240C/Homework1/ChampSim/ipc1_public/server_032.champsimtrace.xz
CPU 0 L1I next line prefetcher
CPU 0 L1D next line prefetcher
Heartbeat CPU 0 instructions: 10000002 cycles: 3521777 heartbeat IPC: 2.83948 cumulative IPC: 2.83948 (Simulation time: 0 hr 2 min 0 sec) 
Heartbeat CPU 0 instructions: 20000003 cycles: 7044046 heartbeat IPC: 2.83908 cumulative IPC: 2.83928 (Simulation time: 0 hr 3 min 57 sec) 
Heartbeat CPU 0 instructions: 30000000 cycles: 10565947 heartbeat IPC: 2.83937 cumulative IPC: 2.83931 (Simulation time: 0 hr 5 min 54 sec) 
Heartbeat CPU 0 instructions: 40000003 cycles: 14089075 heartbeat IPC: 2.83839 cumulative IPC: 2.83908 (Simulation time: 0 hr 7 min 51 sec) 
Heartbeat CPU 0 instructions: 50000000 cycles: 17611022 heartbeat IPC: 2.83934 cumulative IPC: 2.83913 (Simulation time: 0 hr 9 min 51 sec) 

Warmup complete CPU 0 instructions: 50000004 cycles: 17611023 (Simulation time: 0 hr 9 min 51 sec) 

Heartbeat CPU 0 instructions: 60000002 cycles: 24486445 heartbeat IPC: 1.45446 cumulative IPC: 1.45446 (Simulation time: 0 hr 11 min 44 sec) 
Heartbeat CPU 0 instructions: 70000000 cycles: 31354420 heartbeat IPC: 1.45603 cumulative IPC: 1.45524 (Simulation time: 0 hr 13 min 36 sec) 
*** Reached end of trace for Core: 0 Repeating trace: /Users/brandon/Documents/CoursesWi22/CSE240C/Homework1/ChampSim/ipc1_public/server_032.champsimtrace.xz
Heartbeat CPU 0 instructions: 80000003 cycles: 38227753 heartbeat IPC: 1.4549 cumulative IPC: 1.45513 (Simulation time: 0 hr 15 min 20 sec) 
Heartbeat CPU 0 instructions: 90000002 cycles: 45065687 heartbeat IPC: 1.46243 cumulative IPC: 1.45695 (Simulation time: 0 hr 17 min 2 sec) 
Heartbeat CPU 0 instructions: 100000001 cycles: 51923024 heartbeat IPC: 1.45829 cumulative IPC: 1.45722 (Simulation time: 0 hr 18 min 13 sec) 
Finished CPU 0 instructions: 50000002 cycles: 34312003 cumulative IPC: 1.45722 (Simulation time: 0 hr 18 min 13 sec) 

ChampSim completed all CPUs

Region of Interest Statistics

CPU 0 cumulative IPC: 1.45722 instructions: 50000002 cycles: 34312003
L1D TOTAL     ACCESS:   19872594  HIT:   18044101  MISS:    1828493
L1D LOAD      ACCESS:    6805057  HIT:    6010053  MISS:     795004
L1D RFO       ACCESS:    6540553  HIT:    6245574  MISS:     294979
L1D PREFETCH  ACCESS:    6526984  HIT:    5788474  MISS:     738510
L1D WRITEBACK ACCESS:          0  HIT:          0  MISS:          0
L1D PREFETCH  REQUESTED:    6855353  ISSUED:    6719740  USEFUL:     168666  USELESS:     569842
L1D AVERAGE MISS LATENCY: 19.6854 cycles
L1I TOTAL     ACCESS:   14737835  HIT:   10735404  MISS:    4002431
L1I LOAD      ACCESS:    9516358  HIT:    9053475  MISS:     462883
L1I RFO       ACCESS:          0  HIT:          0  MISS:          0
L1I PREFETCH  ACCESS:    5221477  HIT:    1681929  MISS:    3539548
L1I WRITEBACK ACCESS:          0  HIT:          0  MISS:          0
L1I PREFETCH  REQUESTED:    5937621  ISSUED:    5937621  USEFUL:    2777504  USELESS:     762029
L1I AVERAGE MISS LATENCY: 15.4592 cycles
L2C TOTAL     ACCESS:    7917771  HIT:    7218671  MISS:     699100
L2C LOAD      ACCESS:     794140  HIT:     673880  MISS:     120260
L2C RFO       ACCESS:     292641  HIT:     241461  MISS:      51180
L2C PREFETCH  ACCESS:    6194775  HIT:    5671204  MISS:     523571
L2C WRITEBACK ACCESS:     636215  HIT:     632126  MISS:       4089
L2C PREFETCH  REQUESTED:    7211105  ISSUED:    7191794  USEFUL:       9092  USELESS:     514399
L2C AVERAGE MISS LATENCY: 34.0032 cycles
LLC TOTAL     ACCESS:    2486175  HIT:    2479821  MISS:       6354
LLC LOAD      ACCESS:     120226  HIT:     119748  MISS:        478
LLC RFO       ACCESS:      51138  HIT:      51138  MISS:          0
LLC PREFETCH  ACCESS:    2209302  HIT:    2203462  MISS:       5840
LLC WRITEBACK ACCESS:     105509  HIT:     105473  MISS:         36
LLC PREFETCH  REQUESTED:          0  ISSUED:          0  USEFUL:        377  USELESS:       1953
LLC AVERAGE MISS LATENCY: 147.671 cycles
Major fault: 0 Minor fault: 1179
I-Shadow cache 408 bytes
Touched + WorthPF tables 24576 bytes 
MMA filter 174 bytes 
FNL filter 272 bytes 
TOTAL PREFETCHER STORAGE SIZE: 98134 bytes
CPU 0 L1I next line prefetcher final stats
CPU 0 L1D next line prefetcher final stats

DRAM Statistics
 CHANNEL 0
 RQ ROW_BUFFER_HIT:       1645  ROW_BUFFER_MISS:       4673
 DBUS_CONGESTED:        791
 WQ ROW_BUFFER_HIT:          1  ROW_BUFFER_MISS:         14  FULL:          0

 AVG_CONGESTED_CYCLE: 4

CPU 0 Branch Prediction Accuracy: 99.8762% MPKI: 0.2296 Average ROB Occupancy at Mispredict: 183.813

Branch types
NOT_BRANCH: 40726066 81.4521%
BRANCH_DIRECT_JUMP: 508373 1.01675%
BRANCH_INDIRECT: 180051 0.360102%
BRANCH_CONDITIONAL: 5999645 11.9993%
BRANCH_DIRECT_CALL: 1086738 2.17348%
BRANCH_INDIRECT_CALL: 206109 0.412218%
BRANCH_RETURN: 1292835 2.58567%
BRANCH_OTHER: 0 0%

