Initialize SIGNATURE TABLE
ST_SET: 1
ST_WAY: 256
ST_TAG_BIT: 16
ST_TAG_MASK: ffff

Initialize PATTERN TABLE
PT_SET: 512
PT_WAY: 4
SIG_DELTA_BIT: 7
C_SIG_BIT: 4
C_DELTA_BIT: 4

Initialize PREFETCH FILTER
FILTER_SET: 1024

*** ChampSim Multicore Out-of-Order Simulator ***

Warmup Instructions: 50000000
Simulation Instructions: 50000000
Number of CPUs: 1
LLC sets: 2048
LLC ways: 16
Off-chip DRAM Size: 4096 MB Channels: 1 Width: 64-bit Data Rate: 3200 MT/s

CPU 0 runs /Users/brandon/Documents/CoursesWi22/CSE240C/Homework1/ChampSim/ipc1_public/server_017.champsimtrace.xz
CPU 0 L1I next line prefetcher
CPU 0 L1D next line prefetcher
Heartbeat CPU 0 instructions: 10000001 cycles: 3621873 heartbeat IPC: 2.761 cumulative IPC: 2.761 (Simulation time: 0 hr 1 min 44 sec) 
Heartbeat CPU 0 instructions: 20000000 cycles: 7241361 heartbeat IPC: 2.76282 cumulative IPC: 2.76191 (Simulation time: 0 hr 3 min 42 sec) 
Heartbeat CPU 0 instructions: 30000002 cycles: 10867490 heartbeat IPC: 2.75776 cumulative IPC: 2.76053 (Simulation time: 0 hr 5 min 54 sec) 
Heartbeat CPU 0 instructions: 40000000 cycles: 14488509 heartbeat IPC: 2.76165 cumulative IPC: 2.76081 (Simulation time: 0 hr 8 min 5 sec) 
Heartbeat CPU 0 instructions: 50000001 cycles: 18120844 heartbeat IPC: 2.75305 cumulative IPC: 2.75925 (Simulation time: 0 hr 10 min 13 sec) 

Warmup complete CPU 0 instructions: 50000001 cycles: 18120844 (Simulation time: 0 hr 10 min 13 sec) 

Heartbeat CPU 0 instructions: 60000002 cycles: 35304694 heartbeat IPC: 0.581942 cumulative IPC: 0.581942 (Simulation time: 0 hr 13 min 11 sec) 
Heartbeat CPU 0 instructions: 70000002 cycles: 52584713 heartbeat IPC: 0.578703 cumulative IPC: 0.580318 (Simulation time: 0 hr 16 min 8 sec) 
Heartbeat CPU 0 instructions: 80000000 cycles: 69890638 heartbeat IPC: 0.577837 cumulative IPC: 0.579488 (Simulation time: 0 hr 18 min 21 sec) 
Heartbeat CPU 0 instructions: 90000002 cycles: 92989614 heartbeat IPC: 0.43292 cumulative IPC: 0.534268 (Simulation time: 0 hr 19 min 18 sec) 
Heartbeat CPU 0 instructions: 100000003 cycles: 112739068 heartbeat IPC: 0.506343 cumulative IPC: 0.528439 (Simulation time: 0 hr 19 min 58 sec) 
Finished CPU 0 instructions: 50000002 cycles: 94618224 cumulative IPC: 0.528439 (Simulation time: 0 hr 19 min 58 sec) 

ChampSim completed all CPUs

Region of Interest Statistics

CPU 0 cumulative IPC: 0.528439 instructions: 50000002 cycles: 94618224
L1D TOTAL     ACCESS:   18385036  HIT:   16219555  MISS:    2165481
L1D LOAD      ACCESS:    7032828  HIT:    6290916  MISS:     741912
L1D RFO       ACCESS:    5509063  HIT:    4649895  MISS:     859168
L1D PREFETCH  ACCESS:    5843145  HIT:    5278744  MISS:     564401
L1D WRITEBACK ACCESS:          0  HIT:          0  MISS:          0
L1D PREFETCH  REQUESTED:    7070245  ISSUED:    6879860  USEFUL:     202086  USELESS:     362376
L1D AVERAGE MISS LATENCY: 174.798 cycles
L1I TOTAL     ACCESS:   13808772  HIT:   11200577  MISS:    2608195
L1I LOAD      ACCESS:    9818016  HIT:    9614777  MISS:     203239
L1I RFO       ACCESS:          0  HIT:          0  MISS:          0
L1I PREFETCH  ACCESS:    3990756  HIT:    1585800  MISS:    2404956
L1I WRITEBACK ACCESS:          0  HIT:          0  MISS:          0
L1I PREFETCH  REQUESTED:    4365264  ISSUED:    4365264  USEFUL:    2103317  USELESS:     301630
L1I AVERAGE MISS LATENCY: 16.2186 cycles
L2C TOTAL     ACCESS:    6886906  HIT:    5047153  MISS:    1839753
L2C LOAD      ACCESS:     554542  HIT:     227746  MISS:     326796
L2C RFO       ACCESS:     858672  HIT:      18241  MISS:     840431
L2C PREFETCH  ACCESS:    4350883  HIT:    3679838  MISS:     671045
L2C WRITEBACK ACCESS:    1122809  HIT:    1121328  MISS:       1481
L2C PREFETCH  REQUESTED:    4755746  ISSUED:    4748325  USEFUL:      23466  USELESS:     648322
L2C AVERAGE MISS LATENCY: 208.063 cycles
LLC TOTAL     ACCESS:    4170976  HIT:    2644520  MISS:    1526456
LLC LOAD      ACCESS:     326723  HIT:     171199  MISS:     155524
LLC RFO       ACCESS:     840397  HIT:     124449  MISS:     715948
LLC PREFETCH  ACCESS:    1943580  HIT:    1290317  MISS:     653263
LLC WRITEBACK ACCESS:    1060276  HIT:    1058555  MISS:       1721
LLC PREFETCH  REQUESTED:          0  ISSUED:          0  USEFUL:      49040  USELESS:     603163
LLC AVERAGE MISS LATENCY: 265.462 cycles
Major fault: 0 Minor fault: 24695
I-Shadow cache 408 bytes
Touched + WorthPF tables 24576 bytes 
MMA filter 174 bytes 
FNL filter 272 bytes 
TOTAL PREFETCHER STORAGE SIZE: 98134 bytes
CPU 0 L1I next line prefetcher final stats
CPU 0 L1D next line prefetcher final stats

DRAM Statistics
 CHANNEL 0
 RQ ROW_BUFFER_HIT:     378996  ROW_BUFFER_MISS:    1145586
 DBUS_CONGESTED:    1475672
 WQ ROW_BUFFER_HIT:     243299  ROW_BUFFER_MISS:     630684  FULL:          0

 AVG_CONGESTED_CYCLE: 6

CPU 0 Branch Prediction Accuracy: 99.2833% MPKI: 1.20568 Average ROB Occupancy at Mispredict: 181.091

Branch types
NOT_BRANCH: 41588350 83.1767%
BRANCH_DIRECT_JUMP: 464501 0.929002%
BRANCH_INDIRECT: 45704 0.091408%
BRANCH_CONDITIONAL: 6147408 12.2948%
BRANCH_DIRECT_CALL: 675450 1.3509%
BRANCH_INDIRECT_CALL: 201532 0.403064%
BRANCH_RETURN: 876985 1.75397%
BRANCH_OTHER: 0 0%

