Initialize SIGNATURE TABLE
ST_SET: 1
ST_WAY: 256
ST_TAG_BIT: 16
ST_TAG_MASK: ffff

Initialize PATTERN TABLE
PT_SET: 512
PT_WAY: 4
SIG_DELTA_BIT: 7
C_SIG_BIT: 4
C_DELTA_BIT: 4

Initialize PREFETCH FILTER
FILTER_SET: 1024

*** ChampSim Multicore Out-of-Order Simulator ***

Warmup Instructions: 50000000
Simulation Instructions: 50000000
Number of CPUs: 1
LLC sets: 2048
LLC ways: 16
Off-chip DRAM Size: 4096 MB Channels: 1 Width: 64-bit Data Rate: 3200 MT/s

CPU 0 runs /Users/brandon/Documents/CoursesWi22/CSE240C/Homework1/ChampSim/ipc1_public/server_019.champsimtrace.xz
CPU 0 L1I next line prefetcher
CPU 0 L1D next line prefetcher
Heartbeat CPU 0 instructions: 10000002 cycles: 3622457 heartbeat IPC: 2.76056 cumulative IPC: 2.76056 (Simulation time: 0 hr 1 min 44 sec) 
Heartbeat CPU 0 instructions: 20000003 cycles: 7246288 heartbeat IPC: 2.75951 cumulative IPC: 2.76003 (Simulation time: 0 hr 3 min 43 sec) 
Heartbeat CPU 0 instructions: 30000002 cycles: 10868925 heartbeat IPC: 2.76042 cumulative IPC: 2.76016 (Simulation time: 0 hr 5 min 57 sec) 
Heartbeat CPU 0 instructions: 40000002 cycles: 14503473 heartbeat IPC: 2.75137 cumulative IPC: 2.75796 (Simulation time: 0 hr 8 min 7 sec) 
Heartbeat CPU 0 instructions: 50000001 cycles: 18126310 heartbeat IPC: 2.76027 cumulative IPC: 2.75842 (Simulation time: 0 hr 10 min 17 sec) 

Warmup complete CPU 0 instructions: 50000001 cycles: 18126310 (Simulation time: 0 hr 10 min 17 sec) 

Heartbeat CPU 0 instructions: 60000000 cycles: 37944522 heartbeat IPC: 0.504586 cumulative IPC: 0.504586 (Simulation time: 0 hr 13 min 23 sec) 
Heartbeat CPU 0 instructions: 70000002 cycles: 61482260 heartbeat IPC: 0.42485 cumulative IPC: 0.461298 (Simulation time: 0 hr 16 min 19 sec) 
Heartbeat CPU 0 instructions: 80000001 cycles: 82072719 heartbeat IPC: 0.485662 cumulative IPC: 0.469143 (Simulation time: 0 hr 18 min 26 sec) 
Heartbeat CPU 0 instructions: 90000002 cycles: 99671812 heartbeat IPC: 0.568211 cumulative IPC: 0.490524 (Simulation time: 0 hr 19 min 22 sec) 
Heartbeat CPU 0 instructions: 100000002 cycles: 117179886 heartbeat IPC: 0.571165 cumulative IPC: 0.504777 (Simulation time: 0 hr 20 min 1 sec) 
Finished CPU 0 instructions: 50000001 cycles: 99053576 cumulative IPC: 0.504777 (Simulation time: 0 hr 20 min 1 sec) 

ChampSim completed all CPUs

Region of Interest Statistics

CPU 0 cumulative IPC: 0.504777 instructions: 50000001 cycles: 99053576
L1D TOTAL     ACCESS:   18319661  HIT:   16096004  MISS:    2223657
L1D LOAD      ACCESS:    6984873  HIT:    6231241  MISS:     753632
L1D RFO       ACCESS:    5514303  HIT:    4612338  MISS:     901965
L1D PREFETCH  ACCESS:    5820485  HIT:    5252425  MISS:     568060
L1D WRITEBACK ACCESS:          0  HIT:          0  MISS:          0
L1D PREFETCH  REQUESTED:    7022168  ISSUED:    6836848  USEFUL:     198842  USELESS:     369127
L1D AVERAGE MISS LATENCY: 185.902 cycles
L1I TOTAL     ACCESS:   13798228  HIT:   11205094  MISS:    2593134
L1I LOAD      ACCESS:    9786342  HIT:    9578444  MISS:     207898
L1I RFO       ACCESS:          0  HIT:          0  MISS:          0
L1I PREFETCH  ACCESS:    4011886  HIT:    1626650  MISS:    2385236
L1I WRITEBACK ACCESS:          0  HIT:          0  MISS:          0
L1I PREFETCH  REQUESTED:    4397590  ISSUED:    4397590  USEFUL:    2070041  USELESS:     315186
L1I AVERAGE MISS LATENCY: 16.748 cycles
L2C TOTAL     ACCESS:    6967805  HIT:    5073924  MISS:    1893881
L2C LOAD      ACCESS:     571416  HIT:     237381  MISS:     334035
L2C RFO       ACCESS:     901469  HIT:      18148  MISS:     883321
L2C PREFETCH  ACCESS:    4320338  HIT:    3645455  MISS:     674883
L2C WRITEBACK ACCESS:    1174582  HIT:    1172940  MISS:       1642
L2C PREFETCH  REQUESTED:    4573645  ISSUED:    4569111  USEFUL:      24355  USELESS:     649121
L2C AVERAGE MISS LATENCY: 221.75 cycles
LLC TOTAL     ACCESS:    4270016  HIT:    2645907  MISS:    1624109
LLC LOAD      ACCESS:     333965  HIT:     168755  MISS:     165210
LLC RFO       ACCESS:     883285  HIT:     115197  MISS:     768088
LLC PREFETCH  ACCESS:    1942145  HIT:    1253311  MISS:     688834
LLC WRITEBACK ACCESS:    1110621  HIT:    1108644  MISS:       1977
LLC PREFETCH  REQUESTED:          0  ISSUED:          0  USEFUL:      53204  USELESS:     634491
LLC AVERAGE MISS LATENCY: 274.174 cycles
Major fault: 0 Minor fault: 25692
I-Shadow cache 408 bytes
Touched + WorthPF tables 24576 bytes 
MMA filter 174 bytes 
FNL filter 272 bytes 
TOTAL PREFETCHER STORAGE SIZE: 98134 bytes
CPU 0 L1I next line prefetcher final stats
CPU 0 L1D next line prefetcher final stats

DRAM Statistics
 CHANNEL 0
 RQ ROW_BUFFER_HIT:     396944  ROW_BUFFER_MISS:    1224987
 DBUS_CONGESTED:    1603318
 WQ ROW_BUFFER_HIT:     257900  ROW_BUFFER_MISS:     679258  FULL:          0

 AVG_CONGESTED_CYCLE: 6

CPU 0 Branch Prediction Accuracy: 99.2186% MPKI: 1.32192 Average ROB Occupancy at Mispredict: 178.395

Branch types
NOT_BRANCH: 41540785 83.0816%
BRANCH_DIRECT_JUMP: 462384 0.924768%
BRANCH_INDIRECT: 45460 0.09092%
BRANCH_CONDITIONAL: 6209281 12.4186%
BRANCH_DIRECT_CALL: 666241 1.33248%
BRANCH_INDIRECT_CALL: 204728 0.409456%
BRANCH_RETURN: 870978 1.74196%
BRANCH_OTHER: 0 0%

