Initialize SIGNATURE TABLE
ST_SET: 1
ST_WAY: 256
ST_TAG_BIT: 16
ST_TAG_MASK: ffff

Initialize PATTERN TABLE
PT_SET: 512
PT_WAY: 4
SIG_DELTA_BIT: 7
C_SIG_BIT: 4
C_DELTA_BIT: 4

Initialize PREFETCH FILTER
FILTER_SET: 1024

*** ChampSim Multicore Out-of-Order Simulator ***

Warmup Instructions: 50000000
Simulation Instructions: 50000000
Number of CPUs: 1
LLC sets: 2048
LLC ways: 16
Off-chip DRAM Size: 4096 MB Channels: 1 Width: 64-bit Data Rate: 3200 MT/s

CPU 0 runs /Users/brandon/Documents/CoursesWi22/CSE240C/Homework1/ChampSim/ipc1_public/server_038.champsimtrace.xz
CPU 0 L1I next line prefetcher
CPU 0 L1D next line prefetcher
Heartbeat CPU 0 instructions: 10000001 cycles: 3320455 heartbeat IPC: 3.01164 cumulative IPC: 3.01164 (Simulation time: 0 hr 1 min 58 sec) 
Heartbeat CPU 0 instructions: 20000003 cycles: 6643950 heartbeat IPC: 3.00888 cumulative IPC: 3.01026 (Simulation time: 0 hr 3 min 54 sec) 
Heartbeat CPU 0 instructions: 30000003 cycles: 9963478 heartbeat IPC: 3.01248 cumulative IPC: 3.011 (Simulation time: 0 hr 5 min 49 sec) 
Heartbeat CPU 0 instructions: 40000001 cycles: 13287209 heartbeat IPC: 3.00867 cumulative IPC: 3.01041 (Simulation time: 0 hr 7 min 44 sec) 
Heartbeat CPU 0 instructions: 50000001 cycles: 16609029 heartbeat IPC: 3.0104 cumulative IPC: 3.01041 (Simulation time: 0 hr 9 min 43 sec) 

Warmup complete CPU 0 instructions: 50000001 cycles: 16609029 (Simulation time: 0 hr 9 min 43 sec) 

Heartbeat CPU 0 instructions: 60000002 cycles: 23041094 heartbeat IPC: 1.55471 cumulative IPC: 1.55471 (Simulation time: 0 hr 11 min 40 sec) 
Heartbeat CPU 0 instructions: 70000001 cycles: 29431147 heartbeat IPC: 1.56493 cumulative IPC: 1.5598 (Simulation time: 0 hr 13 min 35 sec) 
Heartbeat CPU 0 instructions: 80000000 cycles: 35832419 heartbeat IPC: 1.56219 cumulative IPC: 1.5606 (Simulation time: 0 hr 15 min 18 sec) 
Heartbeat CPU 0 instructions: 90000001 cycles: 42248642 heartbeat IPC: 1.55855 cumulative IPC: 1.56009 (Simulation time: 0 hr 17 min 2 sec) 
*** Reached end of trace for Core: 0 Repeating trace: /Users/brandon/Documents/CoursesWi22/CSE240C/Homework1/ChampSim/ipc1_public/server_038.champsimtrace.xz
Heartbeat CPU 0 instructions: 100000002 cycles: 48666529 heartbeat IPC: 1.55815 cumulative IPC: 1.5597 (Simulation time: 0 hr 18 min 14 sec) 
Finished CPU 0 instructions: 50000001 cycles: 32057500 cumulative IPC: 1.5597 (Simulation time: 0 hr 18 min 14 sec) 

ChampSim completed all CPUs

Region of Interest Statistics

CPU 0 cumulative IPC: 1.5597 instructions: 50000001 cycles: 32057500
L1D TOTAL     ACCESS:   18695614  HIT:   17713232  MISS:     982382
L1D LOAD      ACCESS:    6361159  HIT:    5867948  MISS:     493211
L1D RFO       ACCESS:    6211157  HIT:    6146917  MISS:      64240
L1D PREFETCH  ACCESS:    6123298  HIT:    5698367  MISS:     424931
L1D WRITEBACK ACCESS:          0  HIT:          0  MISS:          0
L1D PREFETCH  REQUESTED:    6397683  ISSUED:    6244927  USEFUL:     118172  USELESS:     306762
L1D AVERAGE MISS LATENCY: 29.2845 cycles
L1I TOTAL     ACCESS:   15236065  HIT:   10667684  MISS:    4568381
L1I LOAD      ACCESS:    9305994  HIT:    8886973  MISS:     419021
L1I RFO       ACCESS:          0  HIT:          0  MISS:          0
L1I PREFETCH  ACCESS:    5930071  HIT:    1780711  MISS:    4149360
L1I WRITEBACK ACCESS:          0  HIT:          0  MISS:          0
L1I PREFETCH  REQUESTED:    6588038  ISSUED:    6588038  USEFUL:    3651937  USELESS:     497434
L1I AVERAGE MISS LATENCY: 13.5935 cycles
L2C TOTAL     ACCESS:    7819369  HIT:    7500958  MISS:     318411
L2C LOAD      ACCESS:     502447  HIT:     360350  MISS:     142097
L2C RFO       ACCESS:      63981  HIT:      36447  MISS:      27534
L2C PREFETCH  ACCESS:    6961253  HIT:    6813745  MISS:     147508
L2C WRITEBACK ACCESS:     291688  HIT:     290416  MISS:       1272
L2C PREFETCH  REQUESTED:    7867530  ISSUED:    7852956  USEFUL:       6942  USELESS:     140462
L2C AVERAGE MISS LATENCY: 45.5124 cycles
LLC TOTAL     ACCESS:    2103373  HIT:    2043793  MISS:      59580
LLC LOAD      ACCESS:     142081  HIT:     129567  MISS:      12514
LLC RFO       ACCESS:      27534  HIT:      22620  MISS:       4914
LLC PREFETCH  ACCESS:    1789459  HIT:    1747890  MISS:      41569
LLC WRITEBACK ACCESS:     144299  HIT:     143716  MISS:        583
LLC PREFETCH  REQUESTED:          0  ISSUED:          0  USEFUL:       3742  USELESS:      35572
LLC AVERAGE MISS LATENCY: 169.555 cycles
Major fault: 0 Minor fault: 5526
I-Shadow cache 408 bytes
Touched + WorthPF tables 24576 bytes 
MMA filter 174 bytes 
FNL filter 272 bytes 
TOTAL PREFETCHER STORAGE SIZE: 98134 bytes
CPU 0 L1I next line prefetcher final stats
CPU 0 L1D next line prefetcher final stats

DRAM Statistics
 CHANNEL 0
 RQ ROW_BUFFER_HIT:      10170  ROW_BUFFER_MISS:      48825
 DBUS_CONGESTED:      26964
 WQ ROW_BUFFER_HIT:       1283  ROW_BUFFER_MISS:      12235  FULL:          0

 AVG_CONGESTED_CYCLE: 5

CPU 0 Branch Prediction Accuracy: 99.9279% MPKI: 0.12968 Average ROB Occupancy at Mispredict: 259.643

Branch types
NOT_BRANCH: 41006327 82.0127%
BRANCH_DIRECT_JUMP: 541914 1.08383%
BRANCH_INDIRECT: 59690 0.11938%
BRANCH_CONDITIONAL: 5915848 11.8317%
BRANCH_DIRECT_CALL: 1003589 2.00718%
BRANCH_INDIRECT_CALL: 234499 0.468998%
BRANCH_RETURN: 1238071 2.47614%
BRANCH_OTHER: 0 0%

