Initialize SIGNATURE TABLE
ST_SET: 1
ST_WAY: 256
ST_TAG_BIT: 16
ST_TAG_MASK: ffff

Initialize PATTERN TABLE
PT_SET: 512
PT_WAY: 4
SIG_DELTA_BIT: 7
C_SIG_BIT: 4
C_DELTA_BIT: 4

Initialize PREFETCH FILTER
FILTER_SET: 1024

*** ChampSim Multicore Out-of-Order Simulator ***

Warmup Instructions: 50000000
Simulation Instructions: 50000000
Number of CPUs: 1
LLC sets: 2048
LLC ways: 16
Off-chip DRAM Size: 4096 MB Channels: 1 Width: 64-bit Data Rate: 3200 MT/s

CPU 0 runs /Users/brandon/Documents/CoursesWi22/CSE240C/Homework1/ChampSim/ipc1_public/spec_perlbench_001.champsimtrace.xz
CPU 0 L1I next line prefetcher
CPU 0 L1D next line prefetcher
Heartbeat CPU 0 instructions: 10000000 cycles: 3275762 heartbeat IPC: 3.05272 cumulative IPC: 3.05272 (Simulation time: 0 hr 1 min 42 sec) 
Heartbeat CPU 0 instructions: 20000000 cycles: 6540152 heartbeat IPC: 3.06336 cumulative IPC: 3.05803 (Simulation time: 0 hr 3 min 29 sec) 
Heartbeat CPU 0 instructions: 30000002 cycles: 9856592 heartbeat IPC: 3.01528 cumulative IPC: 3.04365 (Simulation time: 0 hr 5 min 16 sec) 
Heartbeat CPU 0 instructions: 40000002 cycles: 13112015 heartbeat IPC: 3.0718 cumulative IPC: 3.05064 (Simulation time: 0 hr 6 min 56 sec) 
Heartbeat CPU 0 instructions: 50000001 cycles: 16385904 heartbeat IPC: 3.05447 cumulative IPC: 3.0514 (Simulation time: 0 hr 8 min 35 sec) 

Warmup complete CPU 0 instructions: 50000001 cycles: 16385904 (Simulation time: 0 hr 8 min 35 sec) 

Heartbeat CPU 0 instructions: 60000001 cycles: 24649825 heartbeat IPC: 1.21008 cumulative IPC: 1.21008 (Simulation time: 0 hr 10 min 9 sec) 
Heartbeat CPU 0 instructions: 70000003 cycles: 32751810 heartbeat IPC: 1.23427 cumulative IPC: 1.22205 (Simulation time: 0 hr 11 min 43 sec) 
Heartbeat CPU 0 instructions: 80000000 cycles: 41143983 heartbeat IPC: 1.19159 cumulative IPC: 1.21173 (Simulation time: 0 hr 13 min 12 sec) 
Heartbeat CPU 0 instructions: 90000000 cycles: 46867494 heartbeat IPC: 1.74718 cumulative IPC: 1.31227 (Simulation time: 0 hr 14 min 15 sec) 
Heartbeat CPU 0 instructions: 100000002 cycles: 52742722 heartbeat IPC: 1.70206 cumulative IPC: 1.37526 (Simulation time: 0 hr 15 min 14 sec) 
Finished CPU 0 instructions: 50000001 cycles: 36356818 cumulative IPC: 1.37526 (Simulation time: 0 hr 15 min 14 sec) 

ChampSim completed all CPUs

Region of Interest Statistics

CPU 0 cumulative IPC: 1.37526 instructions: 50000001 cycles: 36356818
L1D TOTAL     ACCESS:   20685854  HIT:   20270758  MISS:     415096
L1D LOAD      ACCESS:    7172530  HIT:    6958834  MISS:     213696
L1D RFO       ACCESS:    6542282  HIT:    6523773  MISS:      18509
L1D PREFETCH  ACCESS:    6971042  HIT:    6788151  MISS:     182891
L1D WRITEBACK ACCESS:          0  HIT:          0  MISS:          0
L1D PREFETCH  REQUESTED:    7188190  ISSUED:    7071656  USEFUL:      55206  USELESS:     127680
L1D AVERAGE MISS LATENCY: 57.858 cycles
L1I TOTAL     ACCESS:   10995631  HIT:   10300819  MISS:     694812
L1I LOAD      ACCESS:    9146755  HIT:    9067576  MISS:      79179
L1I RFO       ACCESS:          0  HIT:          0  MISS:          0
L1I PREFETCH  ACCESS:    1848876  HIT:    1233243  MISS:     615633
L1I WRITEBACK ACCESS:          0  HIT:          0  MISS:          0
L1I PREFETCH  REQUESTED:    1932100  ISSUED:    1932094  USEFUL:     382730  USELESS:     232904
L1I AVERAGE MISS LATENCY: 16.682 cycles
L2C TOTAL     ACCESS:    1535018  HIT:    1366600  MISS:     168418
L2C LOAD      ACCESS:     258304  HIT:     177818  MISS:      80486
L2C RFO       ACCESS:      18273  HIT:      12857  MISS:       5416
L2C PREFETCH  ACCESS:    1179497  HIT:    1097344  MISS:      82153
L2C WRITEBACK ACCESS:      78944  HIT:      78581  MISS:        363
L2C PREFETCH  REQUESTED:    1204937  ISSUED:    1204911  USEFUL:       6400  USELESS:      75852
L2C AVERAGE MISS LATENCY: 118.356 cycles
LLC TOTAL     ACCESS:     452660  HIT:     307922  MISS:     144738
LLC LOAD      ACCESS:      80480  HIT:      32246  MISS:      48234
LLC RFO       ACCESS:       5416  HIT:       2438  MISS:       2978
LLC PREFETCH  ACCESS:     341385  HIT:     248407  MISS:      92978
LLC WRITEBACK ACCESS:      25379  HIT:      24831  MISS:        548
LLC PREFETCH  REQUESTED:          0  ISSUED:          0  USEFUL:      15183  USELESS:      78019
LLC AVERAGE MISS LATENCY: 159.716 cycles
Major fault: 0 Minor fault: 6365
I-Shadow cache 408 bytes
Touched + WorthPF tables 24576 bytes 
MMA filter 174 bytes 
FNL filter 272 bytes 
TOTAL PREFETCHER STORAGE SIZE: 98134 bytes
CPU 0 L1I next line prefetcher final stats
CPU 0 L1D next line prefetcher final stats

DRAM Statistics
 CHANNEL 0
 RQ ROW_BUFFER_HIT:      32520  ROW_BUFFER_MISS:     111666
 DBUS_CONGESTED:      60937
 WQ ROW_BUFFER_HIT:       3994  ROW_BUFFER_MISS:      13448  FULL:          0

 AVG_CONGESTED_CYCLE: 4

CPU 0 Branch Prediction Accuracy: 98.7418% MPKI: 2.47758 Average ROB Occupancy at Mispredict: 79.1292

Branch types
NOT_BRANCH: 40154100 80.3082%
BRANCH_DIRECT_JUMP: 817094 1.63419%
BRANCH_INDIRECT: 303787 0.607574%
BRANCH_CONDITIONAL: 7492103 14.9842%
BRANCH_DIRECT_CALL: 471777 0.943554%
BRANCH_INDIRECT_CALL: 144546 0.289092%
BRANCH_RETURN: 616324 1.23265%
BRANCH_OTHER: 0 0%

