Initialize SIGNATURE TABLE
ST_SET: 1
ST_WAY: 256
ST_TAG_BIT: 16
ST_TAG_MASK: ffff

Initialize PATTERN TABLE
PT_SET: 512
PT_WAY: 4
SIG_DELTA_BIT: 7
C_SIG_BIT: 4
C_DELTA_BIT: 4

Initialize PREFETCH FILTER
FILTER_SET: 1024

*** ChampSim Multicore Out-of-Order Simulator ***

Warmup Instructions: 50000000
Simulation Instructions: 50000000
Number of CPUs: 1
LLC sets: 2048
LLC ways: 16
Off-chip DRAM Size: 4096 MB Channels: 1 Width: 64-bit Data Rate: 3200 MT/s

CPU 0 runs /Users/brandon/Documents/CoursesWi22/CSE240C/Homework1/ChampSim/ipc1_public/spec_gobmk_002.champsimtrace.xz
CPU 0 L1I next line prefetcher
CPU 0 L1D next line prefetcher
Heartbeat CPU 0 instructions: 10000001 cycles: 3287493 heartbeat IPC: 3.04183 cumulative IPC: 3.04183 (Simulation time: 0 hr 1 min 33 sec) 
Heartbeat CPU 0 instructions: 20000000 cycles: 6619029 heartbeat IPC: 3.00162 cumulative IPC: 3.02159 (Simulation time: 0 hr 3 min 11 sec) 
Heartbeat CPU 0 instructions: 30000000 cycles: 9956956 heartbeat IPC: 2.99587 cumulative IPC: 3.01297 (Simulation time: 0 hr 4 min 46 sec) 
Heartbeat CPU 0 instructions: 40000000 cycles: 13266285 heartbeat IPC: 3.02176 cumulative IPC: 3.01516 (Simulation time: 0 hr 6 min 23 sec) 
Heartbeat CPU 0 instructions: 50000003 cycles: 16529784 heartbeat IPC: 3.0642 cumulative IPC: 3.02484 (Simulation time: 0 hr 7 min 59 sec) 

Warmup complete CPU 0 instructions: 50000003 cycles: 16529784 (Simulation time: 0 hr 7 min 59 sec) 

Heartbeat CPU 0 instructions: 60000003 cycles: 23935446 heartbeat IPC: 1.35032 cumulative IPC: 1.35032 (Simulation time: 0 hr 9 min 7 sec) 
Heartbeat CPU 0 instructions: 70000000 cycles: 31299490 heartbeat IPC: 1.35795 cumulative IPC: 1.35412 (Simulation time: 0 hr 10 min 17 sec) 
Heartbeat CPU 0 instructions: 80000000 cycles: 38522482 heartbeat IPC: 1.38447 cumulative IPC: 1.36409 (Simulation time: 0 hr 11 min 23 sec) 
Heartbeat CPU 0 instructions: 90000001 cycles: 46068147 heartbeat IPC: 1.32526 cumulative IPC: 1.35417 (Simulation time: 0 hr 12 min 23 sec) 
Heartbeat CPU 0 instructions: 100000003 cycles: 53845321 heartbeat IPC: 1.28581 cumulative IPC: 1.33992 (Simulation time: 0 hr 13 min 26 sec) 
Finished CPU 0 instructions: 50000000 cycles: 37315537 cumulative IPC: 1.33992 (Simulation time: 0 hr 13 min 26 sec) 

ChampSim completed all CPUs

Region of Interest Statistics

CPU 0 cumulative IPC: 1.33992 instructions: 50000000 cycles: 37315537
L1D TOTAL     ACCESS:   17631519  HIT:   17508389  MISS:     123130
L1D LOAD      ACCESS:    6661236  HIT:    6627010  MISS:      34226
L1D RFO       ACCESS:    4387574  HIT:    4344883  MISS:      42691
L1D PREFETCH  ACCESS:    6582709  HIT:    6536496  MISS:      46213
L1D WRITEBACK ACCESS:          0  HIT:          0  MISS:          0
L1D PREFETCH  REQUESTED:    6663627  ISSUED:    6596250  USEFUL:      17141  USELESS:      29254
L1D AVERAGE MISS LATENCY: 49.928 cycles
L1I TOTAL     ACCESS:   13895069  HIT:   12195308  MISS:    1699761
L1I LOAD      ACCESS:    8847986  HIT:    8716693  MISS:     131293
L1I RFO       ACCESS:          0  HIT:          0  MISS:          0
L1I PREFETCH  ACCESS:    5047083  HIT:    3478615  MISS:    1568468
L1I WRITEBACK ACCESS:          0  HIT:          0  MISS:          0
L1I PREFETCH  REQUESTED:    5251118  ISSUED:    5250998  USEFUL:     885987  USELESS:     682483
L1I AVERAGE MISS LATENCY: 14.3461 cycles
L2C TOTAL     ACCESS:    2732612  HIT:    2695337  MISS:      37275
L2C LOAD      ACCESS:     126433  HIT:     112671  MISS:      13762
L2C RFO       ACCESS:      42559  HIT:      39654  MISS:       2905
L2C PREFETCH  ACCESS:    2489412  HIT:    2468928  MISS:      20484
L2C WRITEBACK ACCESS:      74208  HIT:      74084  MISS:        124
L2C PREFETCH  REQUESTED:    2148616  ISSUED:    2148569  USEFUL:       2302  USELESS:      18669
L2C AVERAGE MISS LATENCY: 123.51 cycles
LLC TOTAL     ACCESS:     167937  HIT:     132615  MISS:      35322
LLC LOAD      ACCESS:      13762  HIT:       5279  MISS:       8483
LLC RFO       ACCESS:       2905  HIT:       1313  MISS:       1592
LLC PREFETCH  ACCESS:     133240  HIT:     108494  MISS:      24746
LLC WRITEBACK ACCESS:      18030  HIT:      17529  MISS:        501
LLC PREFETCH  REQUESTED:          0  ISSUED:          0  USEFUL:       2451  USELESS:      21747
LLC AVERAGE MISS LATENCY: 184.942 cycles
Major fault: 0 Minor fault: 2777
I-Shadow cache 408 bytes
Touched + WorthPF tables 24576 bytes 
MMA filter 174 bytes 
FNL filter 272 bytes 
TOTAL PREFETCHER STORAGE SIZE: 98134 bytes
CPU 0 L1I next line prefetcher final stats
CPU 0 L1D next line prefetcher final stats

DRAM Statistics
 CHANNEL 0
 RQ ROW_BUFFER_HIT:       2805  ROW_BUFFER_MISS:      32016
 DBUS_CONGESTED:      18986
 WQ ROW_BUFFER_HIT:        758  ROW_BUFFER_MISS:      13824  FULL:          0

 AVG_CONGESTED_CYCLE: 4

CPU 0 Branch Prediction Accuracy: 93.9974% MPKI: 10.2447 Average ROB Occupancy at Mispredict: 39.9671

Branch types
NOT_BRANCH: 41466058 82.9321%
BRANCH_DIRECT_JUMP: 464313 0.928626%
BRANCH_INDIRECT: 32 6.4e-05%
BRANCH_CONDITIONAL: 7069453 14.1389%
BRANCH_DIRECT_CALL: 499587 0.999174%
BRANCH_INDIRECT_CALL: 342 0.000684%
BRANCH_RETURN: 499906 0.999812%
BRANCH_OTHER: 0 0%

