Initialize SIGNATURE TABLE
ST_SET: 1
ST_WAY: 256
ST_TAG_BIT: 16
ST_TAG_MASK: ffff

Initialize PATTERN TABLE
PT_SET: 512
PT_WAY: 4
SIG_DELTA_BIT: 7
C_SIG_BIT: 4
C_DELTA_BIT: 4

Initialize PREFETCH FILTER
FILTER_SET: 1024

*** ChampSim Multicore Out-of-Order Simulator ***

Warmup Instructions: 50000000
Simulation Instructions: 50000000
Number of CPUs: 1
LLC sets: 2048
LLC ways: 16
Off-chip DRAM Size: 4096 MB Channels: 1 Width: 64-bit Data Rate: 3200 MT/s

CPU 0 runs /Users/brandon/Documents/CoursesWi22/CSE240C/Homework1/ChampSim/ipc1_public/spec_gcc_002.champsimtrace.xz
CPU 0 L1I next line prefetcher
CPU 0 L1D next line prefetcher
Heartbeat CPU 0 instructions: 10000002 cycles: 3550149 heartbeat IPC: 2.81678 cumulative IPC: 2.81678 (Simulation time: 0 hr 1 min 29 sec) 
Heartbeat CPU 0 instructions: 20000000 cycles: 7143763 heartbeat IPC: 2.78271 cumulative IPC: 2.79964 (Simulation time: 0 hr 2 min 57 sec) 
Heartbeat CPU 0 instructions: 30000000 cycles: 10774747 heartbeat IPC: 2.75407 cumulative IPC: 2.78429 (Simulation time: 0 hr 4 min 31 sec) 
Heartbeat CPU 0 instructions: 40000000 cycles: 14340667 heartbeat IPC: 2.80433 cumulative IPC: 2.78927 (Simulation time: 0 hr 5 min 56 sec) 
Heartbeat CPU 0 instructions: 50000002 cycles: 17847070 heartbeat IPC: 2.85193 cumulative IPC: 2.80158 (Simulation time: 0 hr 7 min 16 sec) 

Warmup complete CPU 0 instructions: 50000002 cycles: 17847070 (Simulation time: 0 hr 7 min 16 sec) 

Heartbeat CPU 0 instructions: 60000001 cycles: 49620672 heartbeat IPC: 0.314727 cumulative IPC: 0.314727 (Simulation time: 0 hr 10 min 22 sec) 
Heartbeat CPU 0 instructions: 70000001 cycles: 80507625 heartbeat IPC: 0.323761 cumulative IPC: 0.31918 (Simulation time: 0 hr 13 min 14 sec) 
Heartbeat CPU 0 instructions: 80000002 cycles: 126397934 heartbeat IPC: 0.217911 cumulative IPC: 0.276368 (Simulation time: 0 hr 16 min 33 sec) 
Heartbeat CPU 0 instructions: 90000001 cycles: 167751070 heartbeat IPC: 0.24182 cumulative IPC: 0.266837 (Simulation time: 0 hr 18 min 23 sec) 
Heartbeat CPU 0 instructions: 100000000 cycles: 190979018 heartbeat IPC: 0.430516 cumulative IPC: 0.288797 (Simulation time: 0 hr 18 min 46 sec) 
Finished CPU 0 instructions: 50000002 cycles: 173131956 cumulative IPC: 0.288797 (Simulation time: 0 hr 18 min 46 sec) 

ChampSim completed all CPUs

Region of Interest Statistics

CPU 0 cumulative IPC: 0.288797 instructions: 50000002 cycles: 173131956
L1D TOTAL     ACCESS:   18323896  HIT:   13090323  MISS:    5233573
L1D LOAD      ACCESS:    6355736  HIT:    5343644  MISS:    1012092
L1D RFO       ACCESS:    7070628  HIT:    3469967  MISS:    3600661
L1D PREFETCH  ACCESS:    4897532  HIT:    4276712  MISS:     620820
L1D WRITEBACK ACCESS:          0  HIT:          0  MISS:          0
L1D PREFETCH  REQUESTED:    6376076  ISSUED:    6305662  USEFUL:     461086  USELESS:     159950
L1D AVERAGE MISS LATENCY: 318.028 cycles
L1I TOTAL     ACCESS:   13965081  HIT:   12910842  MISS:    1054239
L1I LOAD      ACCESS:   12000545  HIT:   11868260  MISS:     132285
L1I RFO       ACCESS:          0  HIT:          0  MISS:          0
L1I PREFETCH  ACCESS:    1964536  HIT:    1042582  MISS:     921954
L1I WRITEBACK ACCESS:          0  HIT:          0  MISS:          0
L1I PREFETCH  REQUESTED:    2173554  ISSUED:    2172781  USEFUL:     568677  USELESS:     353231
L1I AVERAGE MISS LATENCY: 44.6822 cycles
L2C TOTAL     ACCESS:   10403621  HIT:    5041829  MISS:    5361792
L2C LOAD      ACCESS:     300525  HIT:     124202  MISS:     176323
L2C RFO       ACCESS:    3599132  HIT:      10989  MISS:    3588143
L2C PREFETCH  ACCESS:    2778460  HIT:    1181251  MISS:    1597209
L2C WRITEBACK ACCESS:    3725504  HIT:    3725387  MISS:        117
L2C PREFETCH  REQUESTED:    3677239  ISSUED:    3677106  USEFUL:      32821  USELESS:    1564458
L2C AVERAGE MISS LATENCY: 318.036 cycles
LLC TOTAL     ACCESS:   10261308  HIT:    7081906  MISS:    3179402
LLC LOAD      ACCESS:     176209  HIT:     132292  MISS:      43917
LLC RFO       ACCESS:    3588143  HIT:     940291  MISS:    2647852
LLC PREFETCH  ACCESS:    2823453  HIT:    2335820  MISS:     487633
LLC WRITEBACK ACCESS:    3673503  HIT:    3673503  MISS:          0
LLC PREFETCH  REQUESTED:          0  ISSUED:          0  USEFUL:     183778  USELESS:     304540
LLC AVERAGE MISS LATENCY: 502.368 cycles
Major fault: 0 Minor fault: 4152
I-Shadow cache 408 bytes
Touched + WorthPF tables 24576 bytes 
MMA filter 174 bytes 
FNL filter 272 bytes 
TOTAL PREFETCHER STORAGE SIZE: 98134 bytes
CPU 0 L1I next line prefetcher final stats
CPU 0 L1D next line prefetcher final stats

DRAM Statistics
 CHANNEL 0
 RQ ROW_BUFFER_HIT:     859960  ROW_BUFFER_MISS:    2317523
 DBUS_CONGESTED:    4946777
 WQ ROW_BUFFER_HIT:     809913  ROW_BUFFER_MISS:    2039338  FULL:          0

 AVG_CONGESTED_CYCLE: 6

CPU 0 Branch Prediction Accuracy: 99.5987% MPKI: 0.82446 Average ROB Occupancy at Mispredict: 128.064

Branch types
NOT_BRANCH: 39726805 79.4536%
BRANCH_DIRECT_JUMP: 391438 0.782876%
BRANCH_INDIRECT: 62076 0.124152%
BRANCH_CONDITIONAL: 8421541 16.8431%
BRANCH_DIRECT_CALL: 672962 1.34592%
BRANCH_INDIRECT_CALL: 26115 0.05223%
BRANCH_RETURN: 699082 1.39816%
BRANCH_OTHER: 0 0%

