Initialize SIGNATURE TABLE
ST_SET: 1
ST_WAY: 256
ST_TAG_BIT: 16
ST_TAG_MASK: ffff

Initialize PATTERN TABLE
PT_SET: 512
PT_WAY: 4
SIG_DELTA_BIT: 7
C_SIG_BIT: 4
C_DELTA_BIT: 4

Initialize PREFETCH FILTER
FILTER_SET: 1024

*** ChampSim Multicore Out-of-Order Simulator ***

Warmup Instructions: 50000000
Simulation Instructions: 50000000
Number of CPUs: 1
LLC sets: 2048
LLC ways: 16
Off-chip DRAM Size: 4096 MB Channels: 1 Width: 64-bit Data Rate: 3200 MT/s

CPU 0 runs /Users/brandon/Documents/CoursesWi22/CSE240C/Homework1/ChampSim/ipc1_public/spec_gcc_003.champsimtrace.xz
CPU 0 L1I next line prefetcher
CPU 0 L1D next line prefetcher
Heartbeat CPU 0 instructions: 10000001 cycles: 3482770 heartbeat IPC: 2.87128 cumulative IPC: 2.87128 (Simulation time: 0 hr 1 min 21 sec) 
Heartbeat CPU 0 instructions: 20000000 cycles: 6955596 heartbeat IPC: 2.8795 cumulative IPC: 2.87538 (Simulation time: 0 hr 2 min 44 sec) 
Heartbeat CPU 0 instructions: 30000002 cycles: 10397986 heartbeat IPC: 2.90496 cumulative IPC: 2.88517 (Simulation time: 0 hr 4 min 1 sec) 
Heartbeat CPU 0 instructions: 40000000 cycles: 13863387 heartbeat IPC: 2.88567 cumulative IPC: 2.8853 (Simulation time: 0 hr 5 min 19 sec) 
Heartbeat CPU 0 instructions: 50000001 cycles: 17172825 heartbeat IPC: 3.02166 cumulative IPC: 2.91158 (Simulation time: 0 hr 6 min 37 sec) 

Warmup complete CPU 0 instructions: 50000001 cycles: 17172825 (Simulation time: 0 hr 6 min 37 sec) 

Heartbeat CPU 0 instructions: 60000000 cycles: 56842747 heartbeat IPC: 0.25208 cumulative IPC: 0.25208 (Simulation time: 0 hr 10 min 12 sec) 
Heartbeat CPU 0 instructions: 70000000 cycles: 98782346 heartbeat IPC: 0.238438 cumulative IPC: 0.245069 (Simulation time: 0 hr 13 min 42 sec) 
Heartbeat CPU 0 instructions: 80000003 cycles: 141766384 heartbeat IPC: 0.232645 cumulative IPC: 0.240783 (Simulation time: 0 hr 16 min 53 sec) 
Heartbeat CPU 0 instructions: 90000002 cycles: 177988354 heartbeat IPC: 0.276076 cumulative IPC: 0.248732 (Simulation time: 0 hr 18 min 22 sec) 
Heartbeat CPU 0 instructions: 100000001 cycles: 223692078 heartbeat IPC: 0.218801 cumulative IPC: 0.242108 (Simulation time: 0 hr 18 min 56 sec) 
Finished CPU 0 instructions: 50000000 cycles: 206519253 cumulative IPC: 0.242108 (Simulation time: 0 hr 18 min 56 sec) 

ChampSim completed all CPUs

Region of Interest Statistics

CPU 0 cumulative IPC: 0.242108 instructions: 50000000 cycles: 206519253
L1D TOTAL     ACCESS:   16885542  HIT:   11161212  MISS:    5724330
L1D LOAD      ACCESS:    4582744  HIT:    4200015  MISS:     382729
L1D RFO       ACCESS:    8208120  HIT:    3156435  MISS:    5051685
L1D PREFETCH  ACCESS:    4094678  HIT:    3804762  MISS:     289916
L1D WRITEBACK ACCESS:          0  HIT:          0  MISS:          0
L1D PREFETCH  REQUESTED:    4600431  ISSUED:    4540725  USEFUL:     152493  USELESS:     137603
L1D AVERAGE MISS LATENCY: 490.177 cycles
L1I TOTAL     ACCESS:   13499767  HIT:   12228026  MISS:    1271741
L1I LOAD      ACCESS:   11263616  HIT:   11092778  MISS:     170838
L1I RFO       ACCESS:          0  HIT:          0  MISS:          0
L1I PREFETCH  ACCESS:    2236151  HIT:    1135248  MISS:    1100903
L1I WRITEBACK ACCESS:          0  HIT:          0  MISS:          0
L1I PREFETCH  REQUESTED:    2512956  ISSUED:    2512741  USEFUL:     683174  USELESS:     417669
L1I AVERAGE MISS LATENCY: 47.7707 cycles
L2C TOTAL     ACCESS:   12444045  HIT:    6376308  MISS:    6067737
L2C LOAD      ACCESS:     251053  HIT:      78363  MISS:     172690
L2C RFO       ACCESS:    5049869  HIT:       6472  MISS:    5043397
L2C PREFETCH  ACCESS:    1985234  HIT:    1133731  MISS:     851503
L2C WRITEBACK ACCESS:    5157889  HIT:    5157742  MISS:        147
L2C PREFETCH  REQUESTED:    2412617  ISSUED:    2412257  USEFUL:      31093  USELESS:     817607
L2C AVERAGE MISS LATENCY: 460.599 cycles
LLC TOTAL     ACCESS:   12011756  HIT:    7381638  MISS:    4630118
LLC LOAD      ACCESS:     172650  HIT:     129430  MISS:      43220
LLC RFO       ACCESS:    5043397  HIT:     739664  MISS:    4303733
LLC PREFETCH  ACCESS:    1662041  HIT:    1378876  MISS:     283165
LLC WRITEBACK ACCESS:    5133668  HIT:    5133668  MISS:          0
LLC PREFETCH  REQUESTED:          0  ISSUED:          0  USEFUL:      12289  USELESS:     270844
LLC AVERAGE MISS LATENCY: 571.888 cycles
Major fault: 0 Minor fault: 2817
I-Shadow cache 408 bytes
Touched + WorthPF tables 24576 bytes 
MMA filter 174 bytes 
FNL filter 272 bytes 
TOTAL PREFETCHER STORAGE SIZE: 98134 bytes
CPU 0 L1I next line prefetcher final stats
CPU 0 L1D next line prefetcher final stats

DRAM Statistics
 CHANNEL 0
 RQ ROW_BUFFER_HIT:    1403888  ROW_BUFFER_MISS:    3224593
 DBUS_CONGESTED:    7962560
 WQ ROW_BUFFER_HIT:    1149535  ROW_BUFFER_MISS:    3183203  FULL:       1389

 AVG_CONGESTED_CYCLE: 6

CPU 0 Branch Prediction Accuracy: 99.665% MPKI: 0.78342 Average ROB Occupancy at Mispredict: 116.173

Branch types
NOT_BRANCH: 38305856 76.6117%
BRANCH_DIRECT_JUMP: 384281 0.768562%
BRANCH_INDIRECT: 71949 0.143898%
BRANCH_CONDITIONAL: 9879826 19.7597%
BRANCH_DIRECT_CALL: 650586 1.30117%
BRANCH_INDIRECT_CALL: 28456 0.056912%
BRANCH_RETURN: 679046 1.35809%
BRANCH_OTHER: 0 0%

