Initialize SIGNATURE TABLE
ST_SET: 1
ST_WAY: 256
ST_TAG_BIT: 16
ST_TAG_MASK: ffff

Initialize PATTERN TABLE
PT_SET: 512
PT_WAY: 4
SIG_DELTA_BIT: 7
C_SIG_BIT: 4
C_DELTA_BIT: 4

Initialize PREFETCH FILTER
FILTER_SET: 1024

*** ChampSim Multicore Out-of-Order Simulator ***

Warmup Instructions: 50000000
Simulation Instructions: 50000000
Number of CPUs: 1
LLC sets: 2048
LLC ways: 16
Off-chip DRAM Size: 4096 MB Channels: 1 Width: 64-bit Data Rate: 3200 MT/s

CPU 0 runs /Users/brandon/Documents/CoursesWi22/CSE240C/Homework1/ChampSim/ipc1_public/client_003.champsimtrace.xz
CPU 0 L1I next line prefetcher
CPU 0 L1D next line prefetcher
Heartbeat CPU 0 instructions: 10000000 cycles: 3478406 heartbeat IPC: 2.87488 cumulative IPC: 2.87488 (Simulation time: 0 hr 1 min 34 sec) 
Heartbeat CPU 0 instructions: 20000002 cycles: 6932907 heartbeat IPC: 2.89477 cumulative IPC: 2.88479 (Simulation time: 0 hr 3 min 23 sec) 
Heartbeat CPU 0 instructions: 30000003 cycles: 10493932 heartbeat IPC: 2.80818 cumulative IPC: 2.8588 (Simulation time: 0 hr 5 min 15 sec) 
Heartbeat CPU 0 instructions: 40000001 cycles: 14110338 heartbeat IPC: 2.76518 cumulative IPC: 2.8348 (Simulation time: 0 hr 7 min 17 sec) 
Heartbeat CPU 0 instructions: 50000003 cycles: 17655496 heartbeat IPC: 2.82075 cumulative IPC: 2.83198 (Simulation time: 0 hr 9 min 20 sec) 

Warmup complete CPU 0 instructions: 50000003 cycles: 17655496 (Simulation time: 0 hr 9 min 20 sec) 

Heartbeat CPU 0 instructions: 60000002 cycles: 24055294 heartbeat IPC: 1.56255 cumulative IPC: 1.56255 (Simulation time: 0 hr 11 min 6 sec) 
Heartbeat CPU 0 instructions: 70000001 cycles: 30208670 heartbeat IPC: 1.62512 cumulative IPC: 1.59322 (Simulation time: 0 hr 12 min 57 sec) 
Heartbeat CPU 0 instructions: 80000001 cycles: 37228900 heartbeat IPC: 1.42445 cumulative IPC: 1.53269 (Simulation time: 0 hr 14 min 44 sec) 
Heartbeat CPU 0 instructions: 90000000 cycles: 46272674 heartbeat IPC: 1.10573 cumulative IPC: 1.39776 (Simulation time: 0 hr 16 min 12 sec) 
Heartbeat CPU 0 instructions: 100000003 cycles: 57111800 heartbeat IPC: 0.922584 cumulative IPC: 1.26722 (Simulation time: 0 hr 17 min 46 sec) 
Finished CPU 0 instructions: 50000000 cycles: 39456304 cumulative IPC: 1.26722 (Simulation time: 0 hr 17 min 46 sec) 

ChampSim completed all CPUs

Region of Interest Statistics

CPU 0 cumulative IPC: 1.26722 instructions: 50000000 cycles: 39456304
L1D TOTAL     ACCESS:   17720042  HIT:   17223977  MISS:     496065
L1D LOAD      ACCESS:    6079305  HIT:    5952894  MISS:     126411
L1D RFO       ACCESS:    5951781  HIT:    5717444  MISS:     234337
L1D PREFETCH  ACCESS:    5688956  HIT:    5553639  MISS:     135317
L1D WRITEBACK ACCESS:          0  HIT:          0  MISS:          0
L1D PREFETCH  REQUESTED:    6121025  ISSUED:    5979377  USEFUL:      67297  USELESS:      68067
L1D AVERAGE MISS LATENCY: 120 cycles
L1I TOTAL     ACCESS:   11435052  HIT:   10592078  MISS:     842974
L1I LOAD      ACCESS:    9449919  HIT:    9264043  MISS:     185876
L1I RFO       ACCESS:          0  HIT:          0  MISS:          0
L1I PREFETCH  ACCESS:    1985133  HIT:    1328035  MISS:     657098
L1I WRITEBACK ACCESS:          0  HIT:          0  MISS:          0
L1I PREFETCH  REQUESTED:    2089148  ISSUED:    2089148  USEFUL:     381685  USELESS:     275431
L1I AVERAGE MISS LATENCY: 20.6789 cycles
L2C TOTAL     ACCESS:    1996340  HIT:    1591616  MISS:     404724
L2C LOAD      ACCESS:     253465  HIT:     203482  MISS:      49983
L2C RFO       ACCESS:     232286  HIT:      25790  MISS:     206496
L2C PREFETCH  ACCESS:    1241276  HIT:    1094199  MISS:     147077
L2C WRITEBACK ACCESS:     269313  HIT:     268145  MISS:       1168
L2C PREFETCH  REQUESTED:    1546987  ISSUED:    1546404  USEFUL:      12197  USELESS:     135456
L2C AVERAGE MISS LATENCY: 163.032 cycles
LLC TOTAL     ACCESS:    1013518  HIT:     722106  MISS:     291412
LLC LOAD      ACCESS:      49880  HIT:      35668  MISS:      14212
LLC RFO       ACCESS:     206484  HIT:      34726  MISS:     171758
LLC PREFETCH  ACCESS:     532765  HIT:     427767  MISS:     104998
LLC WRITEBACK ACCESS:     224389  HIT:     223945  MISS:        444
LLC PREFETCH  REQUESTED:          0  ISSUED:          0  USEFUL:      10879  USELESS:      94856
LLC AVERAGE MISS LATENCY: 224.991 cycles
Major fault: 0 Minor fault: 5048
I-Shadow cache 408 bytes
Touched + WorthPF tables 6144 bytes 
MMA filter 174 bytes 
FNL filter 272 bytes 
TOTAL PREFETCHER STORAGE SIZE: 25174 bytes
CPU 0 L1I next line prefetcher final stats
CPU 0 L1D next line prefetcher final stats

DRAM Statistics
 CHANNEL 0
 RQ ROW_BUFFER_HIT:     102780  ROW_BUFFER_MISS:     188186
 DBUS_CONGESTED:     261896
 WQ ROW_BUFFER_HIT:      59324  ROW_BUFFER_MISS:     119741  FULL:          0

 AVG_CONGESTED_CYCLE: 6

CPU 0 Branch Prediction Accuracy: 98.6631% MPKI: 2.66884 Average ROB Occupancy at Mispredict: 72.8605

Branch types
NOT_BRANCH: 40018777 80.0376%
BRANCH_DIRECT_JUMP: 370861 0.741722%
BRANCH_INDIRECT: 83253 0.166506%
BRANCH_CONDITIONAL: 7877436 15.7549%
BRANCH_DIRECT_CALL: 722315 1.44463%
BRANCH_INDIRECT_CALL: 101901 0.203802%
BRANCH_RETURN: 825355 1.65071%
BRANCH_OTHER: 0 0%

