Initialize SIGNATURE TABLE
ST_SET: 1
ST_WAY: 256
ST_TAG_BIT: 16
ST_TAG_MASK: ffff

Initialize PATTERN TABLE
PT_SET: 512
PT_WAY: 4
SIG_DELTA_BIT: 7
C_SIG_BIT: 4
C_DELTA_BIT: 4

Initialize PREFETCH FILTER
FILTER_SET: 1024

*** ChampSim Multicore Out-of-Order Simulator ***

Warmup Instructions: 50000000
Simulation Instructions: 50000000
Number of CPUs: 1
LLC sets: 2048
LLC ways: 16
Off-chip DRAM Size: 4096 MB Channels: 1 Width: 64-bit Data Rate: 3200 MT/s

CPU 0 runs /Users/brandon/Documents/CoursesWi22/CSE240C/Homework1/ChampSim/ipc1_public/client_002.champsimtrace.xz
CPU 0 L1I next line prefetcher
CPU 0 L1D next line prefetcher
Heartbeat CPU 0 instructions: 10000000 cycles: 3405228 heartbeat IPC: 2.93666 cumulative IPC: 2.93666 (Simulation time: 0 hr 1 min 30 sec) 
Heartbeat CPU 0 instructions: 20000002 cycles: 6861295 heartbeat IPC: 2.89346 cumulative IPC: 2.9149 (Simulation time: 0 hr 3 min 15 sec) 
Heartbeat CPU 0 instructions: 30000001 cycles: 10294369 heartbeat IPC: 2.91284 cumulative IPC: 2.91421 (Simulation time: 0 hr 5 min 0 sec) 
Heartbeat CPU 0 instructions: 40000002 cycles: 13727559 heartbeat IPC: 2.91274 cumulative IPC: 2.91385 (Simulation time: 0 hr 6 min 52 sec) 
Heartbeat CPU 0 instructions: 50000002 cycles: 17168679 heartbeat IPC: 2.90603 cumulative IPC: 2.91228 (Simulation time: 0 hr 8 min 50 sec) 

Warmup complete CPU 0 instructions: 50000002 cycles: 17168679 (Simulation time: 0 hr 8 min 50 sec) 

Heartbeat CPU 0 instructions: 60000002 cycles: 23273713 heartbeat IPC: 1.63799 cumulative IPC: 1.63799 (Simulation time: 0 hr 10 min 31 sec) 
Heartbeat CPU 0 instructions: 70000001 cycles: 29437488 heartbeat IPC: 1.62238 cumulative IPC: 1.63015 (Simulation time: 0 hr 12 min 17 sec) 
Heartbeat CPU 0 instructions: 80000003 cycles: 35473278 heartbeat IPC: 1.65678 cumulative IPC: 1.63893 (Simulation time: 0 hr 14 min 3 sec) 
Heartbeat CPU 0 instructions: 90000000 cycles: 42073963 heartbeat IPC: 1.51499 cumulative IPC: 1.60608 (Simulation time: 0 hr 15 min 50 sec) 
Heartbeat CPU 0 instructions: 100000003 cycles: 48170415 heartbeat IPC: 1.6403 cumulative IPC: 1.61281 (Simulation time: 0 hr 17 min 31 sec) 
Finished CPU 0 instructions: 50000001 cycles: 31001736 cumulative IPC: 1.61281 (Simulation time: 0 hr 17 min 31 sec) 

ChampSim completed all CPUs

Region of Interest Statistics

CPU 0 cumulative IPC: 1.61281 instructions: 50000001 cycles: 31001736
L1D TOTAL     ACCESS:   19244979  HIT:   18905614  MISS:     339365
L1D LOAD      ACCESS:    6542955  HIT:    6426461  MISS:     116494
L1D RFO       ACCESS:    6421894  HIT:    6332220  MISS:      89674
L1D PREFETCH  ACCESS:    6280130  HIT:    6146933  MISS:     133197
L1D WRITEBACK ACCESS:          0  HIT:          0  MISS:          0
L1D PREFETCH  REQUESTED:    6553260  ISSUED:    6349565  USEFUL:      54290  USELESS:      79050
L1D AVERAGE MISS LATENCY: 48.8132 cycles
L1I TOTAL     ACCESS:   12402383  HIT:   11209449  MISS:    1192934
L1I LOAD      ACCESS:    9542092  HIT:    9356678  MISS:     185414
L1I RFO       ACCESS:          0  HIT:          0  MISS:          0
L1I PREFETCH  ACCESS:    2860291  HIT:    1852771  MISS:    1007520
L1I WRITEBACK ACCESS:          0  HIT:          0  MISS:          0
L1I PREFETCH  REQUESTED:    2999889  ISSUED:    2999887  USEFUL:     609301  USELESS:     398225
L1I AVERAGE MISS LATENCY: 17.7275 cycles
L2C TOTAL     ACCESS:    2173756  HIT:    1911488  MISS:     262268
L2C LOAD      ACCESS:     267476  HIT:     200672  MISS:      66804
L2C RFO       ACCESS:      88737  HIT:      22113  MISS:      66624
L2C PREFETCH  ACCESS:    1692036  HIT:    1563675  MISS:     128361
L2C WRITEBACK ACCESS:     125507  HIT:     125028  MISS:        479
L2C PREFETCH  REQUESTED:    1825752  ISSUED:    1825254  USEFUL:      16357  USELESS:     111556
L2C AVERAGE MISS LATENCY: 62.3717 cycles
LLC TOTAL     ACCESS:     706861  HIT:     641446  MISS:      65415
LLC LOAD      ACCESS:      66801  HIT:      60757  MISS:       6044
LLC RFO       ACCESS:      66622  HIT:      37331  MISS:      29291
LLC PREFETCH  ACCESS:     487923  HIT:     458105  MISS:      29818
LLC WRITEBACK ACCESS:      85515  HIT:      85253  MISS:        262
LLC PREFETCH  REQUESTED:          0  ISSUED:          0  USEFUL:       6025  USELESS:      22644
LLC AVERAGE MISS LATENCY: 177.5 cycles
Major fault: 0 Minor fault: 3096
I-Shadow cache 408 bytes
Touched + WorthPF tables 6144 bytes 
MMA filter 174 bytes 
FNL filter 272 bytes 
TOTAL PREFETCHER STORAGE SIZE: 25174 bytes
CPU 0 L1I next line prefetcher final stats
CPU 0 L1D next line prefetcher final stats

DRAM Statistics
 CHANNEL 0
 RQ ROW_BUFFER_HIT:      22628  ROW_BUFFER_MISS:      42524
 DBUS_CONGESTED:      45134
 WQ ROW_BUFFER_HIT:       9072  ROW_BUFFER_MISS:      27978  FULL:          0

 AVG_CONGESTED_CYCLE: 6

CPU 0 Branch Prediction Accuracy: 99.2117% MPKI: 1.49752 Average ROB Occupancy at Mispredict: 104.851

Branch types
NOT_BRANCH: 40501616 81.0032%
BRANCH_DIRECT_JUMP: 517397 1.03479%
BRANCH_INDIRECT: 112348 0.224696%
BRANCH_CONDITIONAL: 6698737 13.3975%
BRANCH_DIRECT_CALL: 960974 1.92195%
BRANCH_INDIRECT_CALL: 123707 0.247414%
BRANCH_RETURN: 1084929 2.16986%
BRANCH_OTHER: 0 0%

