Initialize SIGNATURE TABLE
ST_SET: 1
ST_WAY: 256
ST_TAG_BIT: 16
ST_TAG_MASK: ffff

Initialize PATTERN TABLE
PT_SET: 512
PT_WAY: 4
SIG_DELTA_BIT: 7
C_SIG_BIT: 4
C_DELTA_BIT: 4

Initialize PREFETCH FILTER
FILTER_SET: 1024

*** ChampSim Multicore Out-of-Order Simulator ***

Warmup Instructions: 50000000
Simulation Instructions: 50000000
Number of CPUs: 1
LLC sets: 2048
LLC ways: 16
Off-chip DRAM Size: 4096 MB Channels: 1 Width: 64-bit Data Rate: 3200 MT/s

CPU 0 runs /Users/brandon/Documents/CoursesWi22/CSE240C/Homework1/ChampSim/ipc1_public/client_007.champsimtrace.xz
CPU 0 L1I next line prefetcher
CPU 0 L1D next line prefetcher
Heartbeat CPU 0 instructions: 10000001 cycles: 3642004 heartbeat IPC: 2.74574 cumulative IPC: 2.74574 (Simulation time: 0 hr 1 min 29 sec) 
Heartbeat CPU 0 instructions: 20000003 cycles: 7033610 heartbeat IPC: 2.94846 cumulative IPC: 2.84349 (Simulation time: 0 hr 3 min 8 sec) 
Heartbeat CPU 0 instructions: 30000000 cycles: 10905061 heartbeat IPC: 2.58301 cumulative IPC: 2.75102 (Simulation time: 0 hr 5 min 4 sec) 
Heartbeat CPU 0 instructions: 40000003 cycles: 15065034 heartbeat IPC: 2.40386 cumulative IPC: 2.65516 (Simulation time: 0 hr 7 min 6 sec) 
Heartbeat CPU 0 instructions: 50000002 cycles: 18469675 heartbeat IPC: 2.93717 cumulative IPC: 2.70714 (Simulation time: 0 hr 9 min 0 sec) 

Warmup complete CPU 0 instructions: 50000002 cycles: 18469675 (Simulation time: 0 hr 9 min 0 sec) 

Heartbeat CPU 0 instructions: 60000003 cycles: 25370510 heartbeat IPC: 1.4491 cumulative IPC: 1.4491 (Simulation time: 0 hr 11 min 0 sec) 
Heartbeat CPU 0 instructions: 70000003 cycles: 34244191 heartbeat IPC: 1.12693 cumulative IPC: 1.26787 (Simulation time: 0 hr 13 min 11 sec) 
Heartbeat CPU 0 instructions: 80000002 cycles: 39559115 heartbeat IPC: 1.88149 cumulative IPC: 1.42251 (Simulation time: 0 hr 14 min 41 sec) 
Heartbeat CPU 0 instructions: 90000002 cycles: 47201909 heartbeat IPC: 1.30842 cumulative IPC: 1.39216 (Simulation time: 0 hr 16 min 47 sec) 
Heartbeat CPU 0 instructions: 100000002 cycles: 56141357 heartbeat IPC: 1.11864 cumulative IPC: 1.32726 (Simulation time: 0 hr 18 min 8 sec) 
Finished CPU 0 instructions: 50000000 cycles: 37671682 cumulative IPC: 1.32726 (Simulation time: 0 hr 18 min 8 sec) 

ChampSim completed all CPUs

Region of Interest Statistics

CPU 0 cumulative IPC: 1.32726 instructions: 50000000 cycles: 37671682
L1D TOTAL     ACCESS:   21216969  HIT:   20047916  MISS:    1169053
L1D LOAD      ACCESS:    8379033  HIT:    7839362  MISS:     539671
L1D RFO       ACCESS:    4869590  HIT:    4778541  MISS:      91049
L1D PREFETCH  ACCESS:    7968346  HIT:    7430013  MISS:     538333
L1D WRITEBACK ACCESS:          0  HIT:          0  MISS:          0
L1D PREFETCH  REQUESTED:    8431225  ISSUED:    8187287  USEFUL:     157811  USELESS:     380538
L1D AVERAGE MISS LATENCY: 34.3917 cycles
L1I TOTAL     ACCESS:   10704059  HIT:    9508097  MISS:    1195962
L1I LOAD      ACCESS:    9129628  HIT:    9086215  MISS:      43413
L1I RFO       ACCESS:          0  HIT:          0  MISS:          0
L1I PREFETCH  ACCESS:    1574431  HIT:     421882  MISS:    1152549
L1I WRITEBACK ACCESS:          0  HIT:          0  MISS:          0
L1I PREFETCH  REQUESTED:    1608159  ISSUED:    1608159  USEFUL:     849947  USELESS:     302636
L1I AVERAGE MISS LATENCY: 16.4305 cycles
L2C TOTAL     ACCESS:    3411024  HIT:    3198404  MISS:     212620
L2C LOAD      ACCESS:     547072  HIT:     475358  MISS:      71714
L2C RFO       ACCESS:      89495  HIT:      48068  MISS:      41427
L2C PREFETCH  ACCESS:    2446787  HIT:    2347396  MISS:      99391
L2C WRITEBACK ACCESS:     327670  HIT:     327582  MISS:         88
L2C PREFETCH  REQUESTED:    2764326  ISSUED:    2760529  USEFUL:       9484  USELESS:      90201
L2C AVERAGE MISS LATENCY: 122.292 cycles
LLC TOTAL     ACCESS:     944377  HIT:     774432  MISS:     169945
LLC LOAD      ACCESS:      71618  HIT:      36225  MISS:      35393
LLC RFO       ACCESS:      41427  HIT:       7001  MISS:      34426
LLC PREFETCH  ACCESS:     757033  HIT:     657214  MISS:      99819
LLC WRITEBACK ACCESS:      74299  HIT:      73992  MISS:        307
LLC PREFETCH  REQUESTED:          0  ISSUED:          0  USEFUL:      18592  USELESS:      82308
LLC AVERAGE MISS LATENCY: 181.074 cycles
Major fault: 0 Minor fault: 4410
I-Shadow cache 408 bytes
Touched + WorthPF tables 6144 bytes 
MMA filter 174 bytes 
FNL filter 272 bytes 
TOTAL PREFETCHER STORAGE SIZE: 25174 bytes
CPU 0 L1I next line prefetcher final stats
CPU 0 L1D next line prefetcher final stats

DRAM Statistics
 CHANNEL 0
 RQ ROW_BUFFER_HIT:      35790  ROW_BUFFER_MISS:     133844
 DBUS_CONGESTED:      96247
 WQ ROW_BUFFER_HIT:      13156  ROW_BUFFER_MISS:      44654  FULL:          0

 AVG_CONGESTED_CYCLE: 5

CPU 0 Branch Prediction Accuracy: 98.8607% MPKI: 1.8623 Average ROB Occupancy at Mispredict: 112.639

Branch types
NOT_BRANCH: 41826773 83.6535%
BRANCH_DIRECT_JUMP: 735330 1.47066%
BRANCH_INDIRECT: 269194 0.538388%
BRANCH_CONDITIONAL: 5957947 11.9159%
BRANCH_DIRECT_CALL: 368758 0.737516%
BRANCH_INDIRECT_CALL: 226975 0.45395%
BRANCH_RETURN: 614696 1.22939%
BRANCH_OTHER: 0 0%

