Initialize SIGNATURE TABLE
ST_SET: 1
ST_WAY: 256
ST_TAG_BIT: 16
ST_TAG_MASK: ffff

Initialize PATTERN TABLE
PT_SET: 512
PT_WAY: 4
SIG_DELTA_BIT: 7
C_SIG_BIT: 4
C_DELTA_BIT: 4

Initialize PREFETCH FILTER
FILTER_SET: 1024

*** ChampSim Multicore Out-of-Order Simulator ***

Warmup Instructions: 50000000
Simulation Instructions: 50000000
Number of CPUs: 1
LLC sets: 2048
LLC ways: 16
Off-chip DRAM Size: 4096 MB Channels: 1 Width: 64-bit Data Rate: 3200 MT/s

CPU 0 runs /Users/brandon/Documents/CoursesWi22/CSE240C/Homework1/ChampSim/ipc1_public/server_026.champsimtrace.xz
CPU 0 L1I next line prefetcher
CPU 0 L1D next line prefetcher
Heartbeat CPU 0 instructions: 10000000 cycles: 3528701 heartbeat IPC: 2.8339 cumulative IPC: 2.8339 (Simulation time: 0 hr 2 min 7 sec) 
Heartbeat CPU 0 instructions: 20000002 cycles: 7064119 heartbeat IPC: 2.82852 cumulative IPC: 2.83121 (Simulation time: 0 hr 4 min 13 sec) 
Heartbeat CPU 0 instructions: 30000000 cycles: 10590504 heartbeat IPC: 2.83576 cumulative IPC: 2.83273 (Simulation time: 0 hr 6 min 13 sec) 
Heartbeat CPU 0 instructions: 40000003 cycles: 14126075 heartbeat IPC: 2.8284 cumulative IPC: 2.83164 (Simulation time: 0 hr 8 min 15 sec) 
Heartbeat CPU 0 instructions: 50000000 cycles: 17654089 heartbeat IPC: 2.83446 cumulative IPC: 2.83221 (Simulation time: 0 hr 10 min 19 sec) 

Warmup complete CPU 0 instructions: 50000004 cycles: 17654090 (Simulation time: 0 hr 10 min 19 sec) 

*** Reached end of trace for Core: 0 Repeating trace: /Users/brandon/Documents/CoursesWi22/CSE240C/Homework1/ChampSim/ipc1_public/server_026.champsimtrace.xz
Heartbeat CPU 0 instructions: 60000000 cycles: 24786010 heartbeat IPC: 1.40215 cumulative IPC: 1.40215 (Simulation time: 0 hr 12 min 19 sec) 
Heartbeat CPU 0 instructions: 70000003 cycles: 31796705 heartbeat IPC: 1.42639 cumulative IPC: 1.41417 (Simulation time: 0 hr 14 min 24 sec) 
Heartbeat CPU 0 instructions: 80000002 cycles: 38900487 heartbeat IPC: 1.4077 cumulative IPC: 1.412 (Simulation time: 0 hr 16 min 14 sec) 
Heartbeat CPU 0 instructions: 90000002 cycles: 45903781 heartbeat IPC: 1.4279 cumulative IPC: 1.41594 (Simulation time: 0 hr 17 min 46 sec) 
Heartbeat CPU 0 instructions: 100000000 cycles: 52979226 heartbeat IPC: 1.41334 cumulative IPC: 1.41542 (Simulation time: 0 hr 19 min 10 sec) 
Finished CPU 0 instructions: 50000000 cycles: 35325137 cumulative IPC: 1.41542 (Simulation time: 0 hr 19 min 10 sec) 

ChampSim completed all CPUs

Region of Interest Statistics

CPU 0 cumulative IPC: 1.41542 instructions: 50000000 cycles: 35325137
L1D TOTAL     ACCESS:   19877190  HIT:   18232193  MISS:    1644997
L1D LOAD      ACCESS:    6985720  HIT:    6255512  MISS:     730208
L1D RFO       ACCESS:    6241118  HIT:    5954330  MISS:     286788
L1D PREFETCH  ACCESS:    6650352  HIT:    6022351  MISS:     628001
L1D WRITEBACK ACCESS:          0  HIT:          0  MISS:          0
L1D PREFETCH  REQUESTED:    7034427  ISSUED:    6892107  USEFUL:     150468  USELESS:     477544
L1D AVERAGE MISS LATENCY: 25.6135 cycles
L1I TOTAL     ACCESS:   15290953  HIT:   10897990  MISS:    4392963
L1I LOAD      ACCESS:    9441567  HIT:    9177421  MISS:     264146
L1I RFO       ACCESS:          0  HIT:          0  MISS:          0
L1I PREFETCH  ACCESS:    5849386  HIT:    1720569  MISS:    4128817
L1I WRITEBACK ACCESS:          0  HIT:          0  MISS:          0
L1I PREFETCH  REQUESTED:    6139182  ISSUED:    6135943  USEFUL:    2634172  USELESS:    1494681
L1I AVERAGE MISS LATENCY: 19.7452 cycles
L2C TOTAL     ACCESS:    8051541  HIT:    6864241  MISS:    1187300
L2C LOAD      ACCESS:     853125  HIT:     632219  MISS:     220906
L2C RFO       ACCESS:     284752  HIT:     169094  MISS:     115658
L2C PREFETCH  ACCESS:    6352476  HIT:    5509267  MISS:     843209
L2C WRITEBACK ACCESS:     561188  HIT:     553661  MISS:       7527
L2C PREFETCH  REQUESTED:    7838037  ISSUED:    7825569  USEFUL:      29096  USELESS:     813795
L2C AVERAGE MISS LATENCY: 37.7483 cycles
LLC TOTAL     ACCESS:    3022346  HIT:    2982609  MISS:      39737
LLC LOAD      ACCESS:     220536  HIT:     216614  MISS:       3922
LLC RFO       ACCESS:     115637  HIT:     101004  MISS:      14633
LLC PREFETCH  ACCESS:    2486440  HIT:    2465443  MISS:      20997
LLC WRITEBACK ACCESS:     199733  HIT:     199548  MISS:        185
LLC PREFETCH  REQUESTED:          0  ISSUED:          0  USEFUL:       1260  USELESS:      19408
LLC AVERAGE MISS LATENCY: 182.585 cycles
Major fault: 0 Minor fault: 2168
I-Shadow cache 408 bytes
Touched + WorthPF tables 6144 bytes 
MMA filter 174 bytes 
FNL filter 272 bytes 
TOTAL PREFETCHER STORAGE SIZE: 25174 bytes
CPU 0 L1I next line prefetcher final stats
CPU 0 L1D next line prefetcher final stats

DRAM Statistics
 CHANNEL 0
 RQ ROW_BUFFER_HIT:      13410  ROW_BUFFER_MISS:      26132
 DBUS_CONGESTED:      25231
 WQ ROW_BUFFER_HIT:       1743  ROW_BUFFER_MISS:      14699  FULL:          0

 AVG_CONGESTED_CYCLE: 6

CPU 0 Branch Prediction Accuracy: 99.822% MPKI: 0.32584 Average ROB Occupancy at Mispredict: 186.804

Branch types
NOT_BRANCH: 40848554 81.6971%
BRANCH_DIRECT_JUMP: 522045 1.04409%
BRANCH_INDIRECT: 204034 0.408068%
BRANCH_CONDITIONAL: 6212958 12.4259%
BRANCH_DIRECT_CALL: 932391 1.86478%
BRANCH_INDIRECT_CALL: 173764 0.347528%
BRANCH_RETURN: 1106152 2.2123%
BRANCH_OTHER: 0 0%

