Initialize SIGNATURE TABLE
ST_SET: 1
ST_WAY: 256
ST_TAG_BIT: 16
ST_TAG_MASK: ffff

Initialize PATTERN TABLE
PT_SET: 512
PT_WAY: 4
SIG_DELTA_BIT: 7
C_SIG_BIT: 4
C_DELTA_BIT: 4

Initialize PREFETCH FILTER
FILTER_SET: 1024

*** ChampSim Multicore Out-of-Order Simulator ***

Warmup Instructions: 50000000
Simulation Instructions: 50000000
Number of CPUs: 1
LLC sets: 2048
LLC ways: 16
Off-chip DRAM Size: 4096 MB Channels: 1 Width: 64-bit Data Rate: 3200 MT/s

CPU 0 runs /Users/brandon/Documents/CoursesWi22/CSE240C/Homework1/ChampSim/ipc1_public/server_033.champsimtrace.xz
CPU 0 L1I next line prefetcher
CPU 0 L1D next line prefetcher
Heartbeat CPU 0 instructions: 10000001 cycles: 3340903 heartbeat IPC: 2.9932 cumulative IPC: 2.9932 (Simulation time: 0 hr 2 min 3 sec) 
Heartbeat CPU 0 instructions: 20000002 cycles: 6680537 heartbeat IPC: 2.99434 cumulative IPC: 2.99377 (Simulation time: 0 hr 4 min 7 sec) 
Heartbeat CPU 0 instructions: 30000001 cycles: 10009215 heartbeat IPC: 3.0042 cumulative IPC: 2.99724 (Simulation time: 0 hr 6 min 4 sec) 
Heartbeat CPU 0 instructions: 40000000 cycles: 13347103 heartbeat IPC: 2.99591 cumulative IPC: 2.99691 (Simulation time: 0 hr 8 min 4 sec) 
Heartbeat CPU 0 instructions: 50000000 cycles: 16684593 heartbeat IPC: 2.99626 cumulative IPC: 2.99678 (Simulation time: 0 hr 10 min 5 sec) 

Warmup complete CPU 0 instructions: 50000004 cycles: 16684594 (Simulation time: 0 hr 10 min 5 sec) 

Heartbeat CPU 0 instructions: 60000000 cycles: 23241463 heartbeat IPC: 1.52512 cumulative IPC: 1.52512 (Simulation time: 0 hr 12 min 7 sec) 
Heartbeat CPU 0 instructions: 70000000 cycles: 29768783 heartbeat IPC: 1.53202 cumulative IPC: 1.52856 (Simulation time: 0 hr 14 min 12 sec) 
Heartbeat CPU 0 instructions: 80000000 cycles: 37137635 heartbeat IPC: 1.35706 cumulative IPC: 1.46677 (Simulation time: 0 hr 16 min 8 sec) 
Heartbeat CPU 0 instructions: 90000003 cycles: 43803545 heartbeat IPC: 1.50017 cumulative IPC: 1.47498 (Simulation time: 0 hr 17 min 43 sec) 
Heartbeat CPU 0 instructions: 100000003 cycles: 50411506 heartbeat IPC: 1.51333 cumulative IPC: 1.4825 (Simulation time: 0 hr 19 min 9 sec) 
Finished CPU 0 instructions: 50000003 cycles: 33726913 cumulative IPC: 1.4825 (Simulation time: 0 hr 19 min 9 sec) 

ChampSim completed all CPUs

Region of Interest Statistics

CPU 0 cumulative IPC: 1.4825 instructions: 50000003 cycles: 33726913
L1D TOTAL     ACCESS:   18230997  HIT:   16748706  MISS:    1482291
L1D LOAD      ACCESS:    6140381  HIT:    5457088  MISS:     683293
L1D RFO       ACCESS:    6165519  HIT:    6016090  MISS:     149429
L1D PREFETCH  ACCESS:    5925097  HIT:    5275528  MISS:     649569
L1D WRITEBACK ACCESS:          0  HIT:          0  MISS:          0
L1D PREFETCH  REQUESTED:    6182024  ISSUED:    6062096  USEFUL:     141332  USELESS:     508243
L1D AVERAGE MISS LATENCY: 23.9573 cycles
L1I TOTAL     ACCESS:   15821357  HIT:   11289879  MISS:    4531478
L1I LOAD      ACCESS:    9704674  HIT:    9641439  MISS:      63235
L1I RFO       ACCESS:          0  HIT:          0  MISS:          0
L1I PREFETCH  ACCESS:    6116683  HIT:    1648440  MISS:    4468243
L1I WRITEBACK ACCESS:          0  HIT:          0  MISS:          0
L1I PREFETCH  REQUESTED:    6345464  ISSUED:    6345152  USEFUL:    3373104  USELESS:    1095116
L1I AVERAGE MISS LATENCY: 15.5787 cycles
L2C TOTAL     ACCESS:    8107175  HIT:    7767300  MISS:     339875
L2C LOAD      ACCESS:     698962  HIT:     575463  MISS:     123499
L2C RFO       ACCESS:     148063  HIT:     128427  MISS:      19636
L2C PREFETCH  ACCESS:    6893690  HIT:    6698544  MISS:     195146
L2C WRITEBACK ACCESS:     366460  HIT:     364866  MISS:       1594
L2C PREFETCH  REQUESTED:    8668185  ISSUED:    8643508  USEFUL:       9929  USELESS:     184955
L2C AVERAGE MISS LATENCY: 48.9849 cycles
LLC TOTAL     ACCESS:    2495551  HIT:    2427691  MISS:      67860
LLC LOAD      ACCESS:     123390  HIT:     108724  MISS:      14666
LLC RFO       ACCESS:      19630  HIT:      17187  MISS:       2443
LLC PREFETCH  ACCESS:    2249265  HIT:    2198932  MISS:      50333
LLC WRITEBACK ACCESS:     103266  HIT:     102848  MISS:        418
LLC PREFETCH  REQUESTED:          0  ISSUED:          0  USEFUL:       7977  USELESS:      40855
LLC AVERAGE MISS LATENCY: 174.602 cycles
Major fault: 0 Minor fault: 2482
I-Shadow cache 408 bytes
Touched + WorthPF tables 6144 bytes 
MMA filter 174 bytes 
FNL filter 272 bytes 
TOTAL PREFETCHER STORAGE SIZE: 25174 bytes
CPU 0 L1I next line prefetcher final stats
CPU 0 L1D next line prefetcher final stats

DRAM Statistics
 CHANNEL 0
 RQ ROW_BUFFER_HIT:      10831  ROW_BUFFER_MISS:      56603
 DBUS_CONGESTED:      30472
 WQ ROW_BUFFER_HIT:       3985  ROW_BUFFER_MISS:      18288  FULL:          0

 AVG_CONGESTED_CYCLE: 5

CPU 0 Branch Prediction Accuracy: 99.9029% MPKI: 0.19006 Average ROB Occupancy at Mispredict: 243.319

Branch types
NOT_BRANCH: 40217117 80.4342%
BRANCH_DIRECT_JUMP: 774599 1.5492%
BRANCH_INDIRECT: 108806 0.217612%
BRANCH_CONDITIONAL: 6379333 12.7587%
BRANCH_DIRECT_CALL: 1048809 2.09762%
BRANCH_INDIRECT_CALL: 211109 0.422218%
BRANCH_RETURN: 1259925 2.51985%
BRANCH_OTHER: 0 0%

