Initialize SIGNATURE TABLE
ST_SET: 1
ST_WAY: 256
ST_TAG_BIT: 16
ST_TAG_MASK: ffff

Initialize PATTERN TABLE
PT_SET: 512
PT_WAY: 4
SIG_DELTA_BIT: 7
C_SIG_BIT: 4
C_DELTA_BIT: 4

Initialize PREFETCH FILTER
FILTER_SET: 1024

*** ChampSim Multicore Out-of-Order Simulator ***

Warmup Instructions: 50000000
Simulation Instructions: 50000000
Number of CPUs: 1
LLC sets: 2048
LLC ways: 16
Off-chip DRAM Size: 4096 MB Channels: 1 Width: 64-bit Data Rate: 3200 MT/s

CPU 0 runs /Users/brandon/Documents/CoursesWi22/CSE240C/Homework1/ChampSim/ipc1_public/server_038.champsimtrace.xz
CPU 0 L1I next line prefetcher
CPU 0 L1D next line prefetcher
Heartbeat CPU 0 instructions: 10000001 cycles: 3321187 heartbeat IPC: 3.01097 cumulative IPC: 3.01097 (Simulation time: 0 hr 2 min 6 sec) 
Heartbeat CPU 0 instructions: 20000003 cycles: 6645358 heartbeat IPC: 3.00827 cumulative IPC: 3.00962 (Simulation time: 0 hr 4 min 14 sec) 
Heartbeat CPU 0 instructions: 30000003 cycles: 9965586 heartbeat IPC: 3.01184 cumulative IPC: 3.01036 (Simulation time: 0 hr 6 min 13 sec) 
Heartbeat CPU 0 instructions: 40000001 cycles: 13290097 heartbeat IPC: 3.00796 cumulative IPC: 3.00976 (Simulation time: 0 hr 8 min 16 sec) 
Heartbeat CPU 0 instructions: 50000001 cycles: 16612644 heartbeat IPC: 3.00974 cumulative IPC: 3.00976 (Simulation time: 0 hr 10 min 20 sec) 

Warmup complete CPU 0 instructions: 50000001 cycles: 16612644 (Simulation time: 0 hr 10 min 20 sec) 

Heartbeat CPU 0 instructions: 60000002 cycles: 23052139 heartbeat IPC: 1.55292 cumulative IPC: 1.55292 (Simulation time: 0 hr 12 min 24 sec) 
Heartbeat CPU 0 instructions: 70000001 cycles: 29446455 heartbeat IPC: 1.56389 cumulative IPC: 1.55838 (Simulation time: 0 hr 14 min 35 sec) 
Heartbeat CPU 0 instructions: 80000000 cycles: 35859597 heartbeat IPC: 1.5593 cumulative IPC: 1.55869 (Simulation time: 0 hr 16 min 28 sec) 
Heartbeat CPU 0 instructions: 90000001 cycles: 42278575 heartbeat IPC: 1.55788 cumulative IPC: 1.55849 (Simulation time: 0 hr 18 min 5 sec) 
*** Reached end of trace for Core: 0 Repeating trace: /Users/brandon/Documents/CoursesWi22/CSE240C/Homework1/ChampSim/ipc1_public/server_038.champsimtrace.xz
Heartbeat CPU 0 instructions: 100000002 cycles: 48710113 heartbeat IPC: 1.55484 cumulative IPC: 1.55776 (Simulation time: 0 hr 19 min 21 sec) 
Finished CPU 0 instructions: 50000001 cycles: 32097469 cumulative IPC: 1.55776 (Simulation time: 0 hr 19 min 21 sec) 

ChampSim completed all CPUs

Region of Interest Statistics

CPU 0 cumulative IPC: 1.55776 instructions: 50000001 cycles: 32097469
L1D TOTAL     ACCESS:   18690692  HIT:   17708351  MISS:     982341
L1D LOAD      ACCESS:    6359173  HIT:    5865951  MISS:     493222
L1D RFO       ACCESS:    6210519  HIT:    6146272  MISS:      64247
L1D PREFETCH  ACCESS:    6121000  HIT:    5696128  MISS:     424872
L1D WRITEBACK ACCESS:          0  HIT:          0  MISS:          0
L1D PREFETCH  REQUESTED:    6396007  ISSUED:    6243234  USEFUL:     118126  USELESS:     306749
L1D AVERAGE MISS LATENCY: 29.4862 cycles
L1I TOTAL     ACCESS:   16171377  HIT:   11413218  MISS:    4758159
L1I LOAD      ACCESS:    9441486  HIT:    9432046  MISS:       9440
L1I RFO       ACCESS:          0  HIT:          0  MISS:          0
L1I PREFETCH  ACCESS:    6729891  HIT:    1981172  MISS:    4748719
L1I WRITEBACK ACCESS:          0  HIT:          0  MISS:          0
L1I PREFETCH  REQUESTED:    6965889  ISSUED:    6965889  USEFUL:    4112013  USELESS:     636717
L1I AVERAGE MISS LATENCY: 14.9647 cycles
L2C TOTAL     ACCESS:    8255021  HIT:    7927447  MISS:     327574
L2C LOAD      ACCESS:     495259  HIT:     349240  MISS:     146019
L2C RFO       ACCESS:      63985  HIT:      36101  MISS:      27884
L2C PREFETCH  ACCESS:    7404082  HIT:    7251689  MISS:     152393
L2C WRITEBACK ACCESS:     291695  HIT:     290417  MISS:       1278
L2C PREFETCH  REQUESTED:    8068538  ISSUED:    8054478  USEFUL:       7146  USELESS:     145141
L2C AVERAGE MISS LATENCY: 45.1248 cycles
LLC TOTAL     ACCESS:    1847302  HIT:    1790817  MISS:      56485
LLC LOAD      ACCESS:     145997  HIT:     133414  MISS:      12583
LLC RFO       ACCESS:      27880  HIT:      22517  MISS:       5363
LLC PREFETCH  ACCESS:    1525582  HIT:    1487557  MISS:      38025
LLC WRITEBACK ACCESS:     147843  HIT:     147329  MISS:        514
LLC PREFETCH  REQUESTED:          0  ISSUED:          0  USEFUL:       3458  USELESS:      34456
LLC AVERAGE MISS LATENCY: 167.141 cycles
Major fault: 0 Minor fault: 5528
I-Shadow cache 408 bytes
Touched + WorthPF tables 6144 bytes 
MMA filter 174 bytes 
FNL filter 272 bytes 
TOTAL PREFETCHER STORAGE SIZE: 25174 bytes
CPU 0 L1I next line prefetcher final stats
CPU 0 L1D next line prefetcher final stats

DRAM Statistics
 CHANNEL 0
 RQ ROW_BUFFER_HIT:       8955  ROW_BUFFER_MISS:      47016
 DBUS_CONGESTED:      25508
 WQ ROW_BUFFER_HIT:       1146  ROW_BUFFER_MISS:      11452  FULL:          0

 AVG_CONGESTED_CYCLE: 5

CPU 0 Branch Prediction Accuracy: 99.9279% MPKI: 0.12968 Average ROB Occupancy at Mispredict: 260.303

Branch types
NOT_BRANCH: 41006324 82.0126%
BRANCH_DIRECT_JUMP: 541914 1.08383%
BRANCH_INDIRECT: 59690 0.11938%
BRANCH_CONDITIONAL: 5915846 11.8317%
BRANCH_DIRECT_CALL: 1003588 2.00718%
BRANCH_INDIRECT_CALL: 234499 0.468998%
BRANCH_RETURN: 1238071 2.47614%
BRANCH_OTHER: 0 0%

