Initialize SIGNATURE TABLE
ST_SET: 1
ST_WAY: 256
ST_TAG_BIT: 16
ST_TAG_MASK: ffff

Initialize PATTERN TABLE
PT_SET: 512
PT_WAY: 4
SIG_DELTA_BIT: 7
C_SIG_BIT: 4
C_DELTA_BIT: 4

Initialize PREFETCH FILTER
FILTER_SET: 1024

*** ChampSim Multicore Out-of-Order Simulator ***

Warmup Instructions: 50000000
Simulation Instructions: 50000000
Number of CPUs: 1
LLC sets: 2048
LLC ways: 16
Off-chip DRAM Size: 4096 MB Channels: 1 Width: 64-bit Data Rate: 3200 MT/s

CPU 0 runs /Users/brandon/Documents/CoursesWi22/CSE240C/Homework1/ChampSim/ipc1_public/server_020.champsimtrace.xz
CPU 0 L1I next line prefetcher
CPU 0 L1D next line prefetcher
Heartbeat CPU 0 instructions: 10000003 cycles: 3622075 heartbeat IPC: 2.76085 cumulative IPC: 2.76085 (Simulation time: 0 hr 1 min 41 sec) 
Heartbeat CPU 0 instructions: 20000002 cycles: 7248258 heartbeat IPC: 2.75772 cumulative IPC: 2.75928 (Simulation time: 0 hr 3 min 36 sec) 
Heartbeat CPU 0 instructions: 30000001 cycles: 10867565 heartbeat IPC: 2.76296 cumulative IPC: 2.76051 (Simulation time: 0 hr 5 min 36 sec) 
Heartbeat CPU 0 instructions: 40000002 cycles: 14488126 heartbeat IPC: 2.762 cumulative IPC: 2.76088 (Simulation time: 0 hr 7 min 44 sec) 
Heartbeat CPU 0 instructions: 50000001 cycles: 18122038 heartbeat IPC: 2.75186 cumulative IPC: 2.75907 (Simulation time: 0 hr 9 min 53 sec) 

Warmup complete CPU 0 instructions: 50000001 cycles: 18122038 (Simulation time: 0 hr 9 min 53 sec) 

Heartbeat CPU 0 instructions: 60000003 cycles: 35370803 heartbeat IPC: 0.579752 cumulative IPC: 0.579752 (Simulation time: 0 hr 12 min 56 sec) 
Heartbeat CPU 0 instructions: 70000002 cycles: 52556614 heartbeat IPC: 0.581875 cumulative IPC: 0.580812 (Simulation time: 0 hr 16 min 2 sec) 
Heartbeat CPU 0 instructions: 80000002 cycles: 69779956 heartbeat IPC: 0.580607 cumulative IPC: 0.580743 (Simulation time: 0 hr 18 min 25 sec) 
Heartbeat CPU 0 instructions: 90000001 cycles: 86971233 heartbeat IPC: 0.58169 cumulative IPC: 0.58098 (Simulation time: 0 hr 19 min 27 sec) 
Heartbeat CPU 0 instructions: 100000002 cycles: 104122936 heartbeat IPC: 0.583033 cumulative IPC: 0.581389 (Simulation time: 0 hr 20 min 11 sec) 
Finished CPU 0 instructions: 50000001 cycles: 86000898 cumulative IPC: 0.581389 (Simulation time: 0 hr 20 min 11 sec) 

ChampSim completed all CPUs

Region of Interest Statistics

CPU 0 cumulative IPC: 0.581389 instructions: 50000001 cycles: 86000898
L1D TOTAL     ACCESS:   18628413  HIT:   16424204  MISS:    2204209
L1D LOAD      ACCESS:    7048382  HIT:    6330114  MISS:     718268
L1D RFO       ACCESS:    5802365  HIT:    4856407  MISS:     945958
L1D PREFETCH  ACCESS:    5777666  HIT:    5237683  MISS:     539983
L1D WRITEBACK ACCESS:          0  HIT:          0  MISS:          0
L1D PREFETCH  REQUESTED:    7090288  ISSUED:    6890118  USEFUL:     200716  USELESS:     339186
L1D AVERAGE MISS LATENCY: 176.583 cycles
L1I TOTAL     ACCESS:   15396933  HIT:   12123142  MISS:    3273791
L1I LOAD      ACCESS:   10114641  HIT:   10082894  MISS:      31747
L1I RFO       ACCESS:          0  HIT:          0  MISS:          0
L1I PREFETCH  ACCESS:    5282292  HIT:    2040248  MISS:    3242044
L1I WRITEBACK ACCESS:          0  HIT:          0  MISS:          0
L1I PREFETCH  REQUESTED:    5524450  ISSUED:    5524422  USEFUL:    2614144  USELESS:     627954
L1I AVERAGE MISS LATENCY: 17.8055 cycles
L2C TOTAL     ACCESS:    7920036  HIT:    6052602  MISS:    1867434
L2C LOAD      ACCESS:     505951  HIT:     239768  MISS:     266183
L2C RFO       ACCESS:     945521  HIT:      21311  MISS:     924210
L2C PREFETCH  ACCESS:    5304962  HIT:    4630097  MISS:     674865
L2C WRITEBACK ACCESS:    1163602  HIT:    1161426  MISS:       2176
L2C PREFETCH  REQUESTED:    5603829  ISSUED:    5593531  USEFUL:      23558  USELESS:     650101
L2C AVERAGE MISS LATENCY: 213.281 cycles
LLC TOTAL     ACCESS:    4188401  HIT:    2745921  MISS:    1442480
LLC LOAD      ACCESS:     266057  HIT:     164552  MISS:     101505
LLC RFO       ACCESS:     924141  HIT:     139140  MISS:     785001
LLC PREFETCH  ACCESS:    1900741  HIT:    1346496  MISS:     554245
LLC WRITEBACK ACCESS:    1097462  HIT:    1095733  MISS:       1729
LLC PREFETCH  REQUESTED:          0  ISSUED:          0  USEFUL:      33209  USELESS:     521191
LLC AVERAGE MISS LATENCY: 282.735 cycles
Major fault: 0 Minor fault: 22091
I-Shadow cache 408 bytes
Touched + WorthPF tables 6144 bytes 
MMA filter 174 bytes 
FNL filter 272 bytes 
TOTAL PREFETCHER STORAGE SIZE: 25174 bytes
CPU 0 L1I next line prefetcher final stats
CPU 0 L1D next line prefetcher final stats

DRAM Statistics
 CHANNEL 0
 RQ ROW_BUFFER_HIT:     410077  ROW_BUFFER_MISS:    1030407
 DBUS_CONGESTED:    1451518
 WQ ROW_BUFFER_HIT:     250030  ROW_BUFFER_MISS:     640088  FULL:          0

 AVG_CONGESTED_CYCLE: 6

CPU 0 Branch Prediction Accuracy: 99.712% MPKI: 0.47638 Average ROB Occupancy at Mispredict: 214.033

Branch types
NOT_BRANCH: 41729595 83.4592%
BRANCH_DIRECT_JUMP: 458221 0.916442%
BRANCH_INDIRECT: 49088 0.098176%
BRANCH_CONDITIONAL: 5938538 11.8771%
BRANCH_DIRECT_CALL: 745133 1.49027%
BRANCH_INDIRECT_CALL: 167110 0.33422%
BRANCH_RETURN: 912224 1.82445%
BRANCH_OTHER: 0 0%

