Initialize SIGNATURE TABLE
ST_SET: 1
ST_WAY: 256
ST_TAG_BIT: 16
ST_TAG_MASK: ffff

Initialize PATTERN TABLE
PT_SET: 512
PT_WAY: 4
SIG_DELTA_BIT: 7
C_SIG_BIT: 4
C_DELTA_BIT: 4

Initialize PREFETCH FILTER
FILTER_SET: 1024

*** ChampSim Multicore Out-of-Order Simulator ***

Warmup Instructions: 50000000
Simulation Instructions: 50000000
Number of CPUs: 1
LLC sets: 2048
LLC ways: 16
Off-chip DRAM Size: 4096 MB Channels: 1 Width: 64-bit Data Rate: 3200 MT/s

CPU 0 runs /Users/brandon/Documents/CoursesWi22/CSE240C/Homework1/ChampSim/ipc1_public/server_022.champsimtrace.xz
CPU 0 L1I next line prefetcher
CPU 0 L1D next line prefetcher
Heartbeat CPU 0 instructions: 10000002 cycles: 3623887 heartbeat IPC: 2.75947 cumulative IPC: 2.75947 (Simulation time: 0 hr 1 min 41 sec) 
Heartbeat CPU 0 instructions: 20000001 cycles: 7253925 heartbeat IPC: 2.75479 cumulative IPC: 2.75713 (Simulation time: 0 hr 3 min 36 sec) 
Heartbeat CPU 0 instructions: 30000003 cycles: 10877794 heartbeat IPC: 2.75948 cumulative IPC: 2.75791 (Simulation time: 0 hr 5 min 36 sec) 
Heartbeat CPU 0 instructions: 40000003 cycles: 14508989 heartbeat IPC: 2.75391 cumulative IPC: 2.75691 (Simulation time: 0 hr 7 min 44 sec) 
Heartbeat CPU 0 instructions: 50000002 cycles: 18130271 heartbeat IPC: 2.76145 cumulative IPC: 2.75782 (Simulation time: 0 hr 9 min 55 sec) 

Warmup complete CPU 0 instructions: 50000002 cycles: 18130271 (Simulation time: 0 hr 9 min 55 sec) 

Heartbeat CPU 0 instructions: 60000000 cycles: 34686638 heartbeat IPC: 0.603997 cumulative IPC: 0.603997 (Simulation time: 0 hr 12 min 59 sec) 
Heartbeat CPU 0 instructions: 70000001 cycles: 51309062 heartbeat IPC: 0.601597 cumulative IPC: 0.602795 (Simulation time: 0 hr 16 min 8 sec) 
Heartbeat CPU 0 instructions: 80000001 cycles: 67794335 heartbeat IPC: 0.606602 cumulative IPC: 0.604059 (Simulation time: 0 hr 18 min 28 sec) 
Heartbeat CPU 0 instructions: 90000003 cycles: 84479319 heartbeat IPC: 0.599341 cumulative IPC: 0.602872 (Simulation time: 0 hr 19 min 29 sec) 
Heartbeat CPU 0 instructions: 100000003 cycles: 100856130 heartbeat IPC: 0.610619 cumulative IPC: 0.604406 (Simulation time: 0 hr 20 min 13 sec) 
Finished CPU 0 instructions: 50000001 cycles: 82725859 cumulative IPC: 0.604406 (Simulation time: 0 hr 20 min 13 sec) 

ChampSim completed all CPUs

Region of Interest Statistics

CPU 0 cumulative IPC: 0.604406 instructions: 50000001 cycles: 82725859
L1D TOTAL     ACCESS:   18685600  HIT:   16474822  MISS:    2210778
L1D LOAD      ACCESS:    7052860  HIT:    6350483  MISS:     702377
L1D RFO       ACCESS:    5875592  HIT:    4896147  MISS:     979445
L1D PREFETCH  ACCESS:    5757148  HIT:    5228192  MISS:     528956
L1D WRITEBACK ACCESS:          0  HIT:          0  MISS:          0
L1D PREFETCH  REQUESTED:    7094654  ISSUED:    6887083  USEFUL:     207703  USELESS:     321259
L1D AVERAGE MISS LATENCY: 180.012 cycles
L1I TOTAL     ACCESS:   15556321  HIT:   12202631  MISS:    3353690
L1I LOAD      ACCESS:   10144008  HIT:   10112899  MISS:      31109
L1I RFO       ACCESS:          0  HIT:          0  MISS:          0
L1I PREFETCH  ACCESS:    5412313  HIT:    2089732  MISS:    3322581
L1I WRITEBACK ACCESS:          0  HIT:          0  MISS:          0
L1I PREFETCH  REQUESTED:    5671164  ISSUED:    5671157  USEFUL:    2662210  USELESS:     660362
L1I AVERAGE MISS LATENCY: 17.1553 cycles
L2C TOTAL     ACCESS:    7982347  HIT:    6115277  MISS:    1867070
L2C LOAD      ACCESS:     487124  HIT:     243116  MISS:     244008
L2C RFO       ACCESS:     978967  HIT:      20883  MISS:     958084
L2C PREFETCH  ACCESS:    5331088  HIT:    4667844  MISS:     663244
L2C WRITEBACK ACCESS:    1185168  HIT:    1183434  MISS:       1734
L2C PREFETCH  REQUESTED:    5652804  ISSUED:    5640031  USEFUL:      21323  USELESS:     641891
L2C AVERAGE MISS LATENCY: 217.414 cycles
LLC TOTAL     ACCESS:    4259196  HIT:    2859558  MISS:    1399638
LLC LOAD      ACCESS:     243894  HIT:     170668  MISS:      73226
LLC RFO       ACCESS:     958027  HIT:     140384  MISS:     817643
LLC PREFETCH  ACCESS:    1940077  HIT:    1433089  MISS:     506988
LLC WRITEBACK ACCESS:    1117198  HIT:    1115417  MISS:       1781
LLC PREFETCH  REQUESTED:          0  ISSUED:          0  USEFUL:      29008  USELESS:     478323
LLC AVERAGE MISS LATENCY: 294.773 cycles
Major fault: 0 Minor fault: 23508
I-Shadow cache 408 bytes
Touched + WorthPF tables 6144 bytes 
MMA filter 174 bytes 
FNL filter 272 bytes 
TOTAL PREFETCHER STORAGE SIZE: 25174 bytes
CPU 0 L1I next line prefetcher final stats
CPU 0 L1D next line prefetcher final stats

DRAM Statistics
 CHANNEL 0
 RQ ROW_BUFFER_HIT:     408028  ROW_BUFFER_MISS:     989614
 DBUS_CONGESTED:    1457565
 WQ ROW_BUFFER_HIT:     254273  ROW_BUFFER_MISS:     648196  FULL:          0

 AVG_CONGESTED_CYCLE: 6

CPU 0 Branch Prediction Accuracy: 99.8317% MPKI: 0.27564 Average ROB Occupancy at Mispredict: 220.886

Branch types
NOT_BRANCH: 41811139 83.6223%
BRANCH_DIRECT_JUMP: 445742 0.891484%
BRANCH_INDIRECT: 48876 0.097752%
BRANCH_CONDITIONAL: 5859405 11.7188%
BRANCH_DIRECT_CALL: 758267 1.51653%
BRANCH_INDIRECT_CALL: 159103 0.318206%
BRANCH_RETURN: 917372 1.83474%
BRANCH_OTHER: 0 0%

