Initialize SIGNATURE TABLE
ST_SET: 1
ST_WAY: 256
ST_TAG_BIT: 16
ST_TAG_MASK: ffff

Initialize PATTERN TABLE
PT_SET: 512
PT_WAY: 4
SIG_DELTA_BIT: 7
C_SIG_BIT: 4
C_DELTA_BIT: 4

Initialize PREFETCH FILTER
FILTER_SET: 1024

*** ChampSim Multicore Out-of-Order Simulator ***

Warmup Instructions: 50000000
Simulation Instructions: 50000000
Number of CPUs: 1
LLC sets: 2048
LLC ways: 16
Off-chip DRAM Size: 4096 MB Channels: 1 Width: 64-bit Data Rate: 3200 MT/s

CPU 0 runs /Users/brandon/Documents/CoursesWi22/CSE240C/Homework1/ChampSim/ipc1_public/server_031.champsimtrace.xz
CPU 0 L1I next line prefetcher
CPU 0 L1D next line prefetcher
Heartbeat CPU 0 instructions: 10000003 cycles: 3523234 heartbeat IPC: 2.8383 cumulative IPC: 2.8383 (Simulation time: 0 hr 2 min 8 sec) 
Heartbeat CPU 0 instructions: 20000002 cycles: 7046435 heartbeat IPC: 2.83833 cumulative IPC: 2.83832 (Simulation time: 0 hr 4 min 16 sec) 
Heartbeat CPU 0 instructions: 30000002 cycles: 10569945 heartbeat IPC: 2.83808 cumulative IPC: 2.83824 (Simulation time: 0 hr 6 min 16 sec) 
Heartbeat CPU 0 instructions: 40000003 cycles: 14089677 heartbeat IPC: 2.84113 cumulative IPC: 2.83896 (Simulation time: 0 hr 8 min 21 sec) 
Heartbeat CPU 0 instructions: 50000000 cycles: 17611629 heartbeat IPC: 2.83933 cumulative IPC: 2.83903 (Simulation time: 0 hr 10 min 26 sec) 

Warmup complete CPU 0 instructions: 50000004 cycles: 17611630 (Simulation time: 0 hr 10 min 26 sec) 

Heartbeat CPU 0 instructions: 60000001 cycles: 25231355 heartbeat IPC: 1.31238 cumulative IPC: 1.31238 (Simulation time: 0 hr 12 min 33 sec) 
Heartbeat CPU 0 instructions: 70000002 cycles: 32910764 heartbeat IPC: 1.30218 cumulative IPC: 1.30726 (Simulation time: 0 hr 14 min 43 sec) 
*** Reached end of trace for Core: 0 Repeating trace: /Users/brandon/Documents/CoursesWi22/CSE240C/Homework1/ChampSim/ipc1_public/server_031.champsimtrace.xz
Heartbeat CPU 0 instructions: 80000000 cycles: 40431712 heartbeat IPC: 1.32962 cumulative IPC: 1.31463 (Simulation time: 0 hr 16 min 34 sec) 
Heartbeat CPU 0 instructions: 90000003 cycles: 47967963 heartbeat IPC: 1.32692 cumulative IPC: 1.31768 (Simulation time: 0 hr 18 min 12 sec) 
Heartbeat CPU 0 instructions: 100000000 cycles: 55472871 heartbeat IPC: 1.33246 cumulative IPC: 1.32061 (Simulation time: 0 hr 19 min 25 sec) 
Finished CPU 0 instructions: 50000000 cycles: 37861246 cumulative IPC: 1.32061 (Simulation time: 0 hr 19 min 25 sec) 

ChampSim completed all CPUs

Region of Interest Statistics

CPU 0 cumulative IPC: 1.32061 instructions: 50000000 cycles: 37861246
L1D TOTAL     ACCESS:   19512235  HIT:   17607861  MISS:    1904374
L1D LOAD      ACCESS:    6770016  HIT:    5896875  MISS:     873141
L1D RFO       ACCESS:    6315375  HIT:    6023967  MISS:     291408
L1D PREFETCH  ACCESS:    6426844  HIT:    5687019  MISS:     739825
L1D WRITEBACK ACCESS:          0  HIT:          0  MISS:          0
L1D PREFETCH  REQUESTED:    6834848  ISSUED:    6720537  USEFUL:     174025  USELESS:     565805
L1D AVERAGE MISS LATENCY: 24.4876 cycles
L1I TOTAL     ACCESS:   15875060  HIT:   11447729  MISS:    4427331
L1I LOAD      ACCESS:    9701485  HIT:    9573620  MISS:     127865
L1I RFO       ACCESS:          0  HIT:          0  MISS:          0
L1I PREFETCH  ACCESS:    6173575  HIT:    1874109  MISS:    4299466
L1I WRITEBACK ACCESS:          0  HIT:          0  MISS:          0
L1I PREFETCH  REQUESTED:    6426876  ISSUED:    6426584  USEFUL:    3005922  USELESS:    1293563
L1I AVERAGE MISS LATENCY: 18.1277 cycles
L2C TOTAL     ACCESS:    8849171  HIT:    7975733  MISS:     873438
L2C LOAD      ACCESS:     881200  HIT:     708125  MISS:     173075
L2C RFO       ACCESS:     289322  HIT:     213459  MISS:      75863
L2C PREFETCH  ACCESS:    7061860  HIT:    6442123  MISS:     619737
L2C WRITEBACK ACCESS:     616789  HIT:     612026  MISS:       4763
L2C PREFETCH  REQUESTED:    9411402  ISSUED:    9378762  USEFUL:      13009  USELESS:     606196
L2C AVERAGE MISS LATENCY: 41.8524 cycles
LLC TOTAL     ACCESS:    2860825  HIT:    2776128  MISS:      84697
LLC LOAD      ACCESS:     172865  HIT:     153855  MISS:      19010
LLC RFO       ACCESS:      75821  HIT:      71642  MISS:       4179
LLC PREFETCH  ACCESS:    2476930  HIT:    2415891  MISS:      61039
LLC WRITEBACK ACCESS:     135209  HIT:     134740  MISS:        469
LLC PREFETCH  REQUESTED:          0  ISSUED:          0  USEFUL:       2850  USELESS:      57756
LLC AVERAGE MISS LATENCY: 160.177 cycles
Major fault: 0 Minor fault: 6047
I-Shadow cache 408 bytes
Touched + WorthPF tables 6144 bytes 
MMA filter 174 bytes 
FNL filter 272 bytes 
TOTAL PREFETCHER STORAGE SIZE: 25174 bytes
CPU 0 L1I next line prefetcher final stats
CPU 0 L1D next line prefetcher final stats

DRAM Statistics
 CHANNEL 0
 RQ ROW_BUFFER_HIT:      23137  ROW_BUFFER_MISS:      61087
 DBUS_CONGESTED:      38419
 WQ ROW_BUFFER_HIT:        746  ROW_BUFFER_MISS:       5069  FULL:          0

 AVG_CONGESTED_CYCLE: 5

CPU 0 Branch Prediction Accuracy: 99.6894% MPKI: 0.58048 Average ROB Occupancy at Mispredict: 144.402

Branch types
NOT_BRANCH: 40655610 81.3112%
BRANCH_DIRECT_JUMP: 546483 1.09297%
BRANCH_INDIRECT: 172433 0.344866%
BRANCH_CONDITIONAL: 6207581 12.4152%
BRANCH_DIRECT_CALL: 1018497 2.03699%
BRANCH_INDIRECT_CALL: 190373 0.380746%
BRANCH_RETURN: 1208855 2.41771%
BRANCH_OTHER: 0 0%

