Initialize SIGNATURE TABLE
ST_SET: 1
ST_WAY: 256
ST_TAG_BIT: 16
ST_TAG_MASK: ffff

Initialize PATTERN TABLE
PT_SET: 512
PT_WAY: 4
SIG_DELTA_BIT: 7
C_SIG_BIT: 4
C_DELTA_BIT: 4

Initialize PREFETCH FILTER
FILTER_SET: 1024

*** ChampSim Multicore Out-of-Order Simulator ***

Warmup Instructions: 50000000
Simulation Instructions: 50000000
Number of CPUs: 1
LLC sets: 2048
LLC ways: 16
Off-chip DRAM Size: 4096 MB Channels: 1 Width: 64-bit Data Rate: 3200 MT/s

CPU 0 runs /Users/brandon/Documents/CoursesWi22/CSE240C/Homework1/ChampSim/ipc1_public/server_009.champsimtrace.xz
CPU 0 L1I next line prefetcher
CPU 0 L1D next line prefetcher
Heartbeat CPU 0 instructions: 10000003 cycles: 3199990 heartbeat IPC: 3.12501 cumulative IPC: 3.12501 (Simulation time: 0 hr 1 min 30 sec) 
Heartbeat CPU 0 instructions: 20000001 cycles: 6392567 heartbeat IPC: 3.13227 cumulative IPC: 3.12863 (Simulation time: 0 hr 3 min 13 sec) 
Heartbeat CPU 0 instructions: 30000002 cycles: 9599205 heartbeat IPC: 3.11853 cumulative IPC: 3.12526 (Simulation time: 0 hr 4 min 59 sec) 
Heartbeat CPU 0 instructions: 40000003 cycles: 12803354 heartbeat IPC: 3.12095 cumulative IPC: 3.12418 (Simulation time: 0 hr 6 min 50 sec) 
Heartbeat CPU 0 instructions: 50000000 cycles: 16063413 heartbeat IPC: 3.06743 cumulative IPC: 3.11266 (Simulation time: 0 hr 8 min 47 sec) 

Warmup complete CPU 0 instructions: 50000004 cycles: 16063414 (Simulation time: 0 hr 8 min 47 sec) 

Heartbeat CPU 0 instructions: 60000002 cycles: 32070560 heartbeat IPC: 0.624721 cumulative IPC: 0.624721 (Simulation time: 0 hr 11 min 19 sec) 
Heartbeat CPU 0 instructions: 70000003 cycles: 53226294 heartbeat IPC: 0.472685 cumulative IPC: 0.538171 (Simulation time: 0 hr 14 min 34 sec) 
Heartbeat CPU 0 instructions: 80000000 cycles: 60846666 heartbeat IPC: 1.31227 cumulative IPC: 0.669893 (Simulation time: 0 hr 16 min 23 sec) 
Heartbeat CPU 0 instructions: 90000001 cycles: 68638290 heartbeat IPC: 1.28343 cumulative IPC: 0.76082 (Simulation time: 0 hr 17 min 56 sec) 
Heartbeat CPU 0 instructions: 100000003 cycles: 76289904 heartbeat IPC: 1.30691 cumulative IPC: 0.830199 (Simulation time: 0 hr 18 min 49 sec) 
Finished CPU 0 instructions: 50000003 cycles: 60226491 cumulative IPC: 0.830199 (Simulation time: 0 hr 18 min 49 sec) 

ChampSim completed all CPUs

Region of Interest Statistics

CPU 0 cumulative IPC: 0.830199 instructions: 50000003 cycles: 60226491
L1D TOTAL     ACCESS:   21725876  HIT:   17146093  MISS:    4579783
L1D LOAD      ACCESS:    8678750  HIT:    6398870  MISS:    2279880
L1D RFO       ACCESS:    4583011  HIT:    4478571  MISS:     104440
L1D PREFETCH  ACCESS:    8464115  HIT:    6268652  MISS:    2195463
L1D WRITEBACK ACCESS:          0  HIT:          0  MISS:          0
L1D PREFETCH  REQUESTED:    8711821  ISSUED:    8613778  USEFUL:     106830  USELESS:    2088632
L1D AVERAGE MISS LATENCY: 20.8353 cycles
L1I TOTAL     ACCESS:   13290781  HIT:   11501502  MISS:    1789279
L1I LOAD      ACCESS:   10734236  HIT:   10470316  MISS:     263920
L1I RFO       ACCESS:          0  HIT:          0  MISS:          0
L1I PREFETCH  ACCESS:    2556545  HIT:    1031186  MISS:    1525359
L1I WRITEBACK ACCESS:          0  HIT:          0  MISS:          0
L1I PREFETCH  REQUESTED:    2782676  ISSUED:    2782391  USEFUL:     897306  USELESS:     628051
L1I AVERAGE MISS LATENCY: 30.9289 cycles
L2C TOTAL     ACCESS:    8077007  HIT:    6885367  MISS:    1191640
L2C LOAD      ACCESS:    2420090  HIT:    2138887  MISS:     281203
L2C RFO       ACCESS:     103498  HIT:      62065  MISS:      41433
L2C PREFETCH  ACCESS:    5296543  HIT:    4429082  MISS:     867461
L2C WRITEBACK ACCESS:     256876  HIT:     255333  MISS:       1543
L2C PREFETCH  REQUESTED:    8266743  ISSUED:    8263389  USEFUL:      31455  USELESS:     835197
L2C AVERAGE MISS LATENCY: 50.5763 cycles
LLC TOTAL     ACCESS:    2578579  HIT:    2399986  MISS:     178593
LLC LOAD      ACCESS:     280943  HIT:     252550  MISS:      28393
LLC RFO       ACCESS:      41425  HIT:      30568  MISS:      10857
LLC PREFETCH  ACCESS:    2113663  HIT:    1974740  MISS:     138923
LLC WRITEBACK ACCESS:     142548  HIT:     142128  MISS:        420
LLC PREFETCH  REQUESTED:          0  ISSUED:          0  USEFUL:      11815  USELESS:     125169
LLC AVERAGE MISS LATENCY: 172.906 cycles
Major fault: 0 Minor fault: 6367
I-Shadow cache 408 bytes
Touched + WorthPF tables 6144 bytes 
MMA filter 174 bytes 
FNL filter 272 bytes 
TOTAL PREFETCHER STORAGE SIZE: 25174 bytes
CPU 0 L1I next line prefetcher final stats
CPU 0 L1D next line prefetcher final stats

DRAM Statistics
 CHANNEL 0
 RQ ROW_BUFFER_HIT:      35472  ROW_BUFFER_MISS:     142676
 DBUS_CONGESTED:      79912
 WQ ROW_BUFFER_HIT:      10140  ROW_BUFFER_MISS:      40776  FULL:          0

 AVG_CONGESTED_CYCLE: 5

CPU 0 Branch Prediction Accuracy: 99.4713% MPKI: 1.11484 Average ROB Occupancy at Mispredict: 108.449

Branch types
NOT_BRANCH: 39456615 78.9132%
BRANCH_DIRECT_JUMP: 445350 0.8907%
BRANCH_INDIRECT: 131149 0.262298%
BRANCH_CONDITIONAL: 8130196 16.2604%
BRANCH_DIRECT_CALL: 732485 1.46497%
BRANCH_INDIRECT_CALL: 172369 0.344738%
BRANCH_RETURN: 931558 1.86312%
BRANCH_OTHER: 0 0%

