Initialize SIGNATURE TABLE
ST_SET: 1
ST_WAY: 256
ST_TAG_BIT: 16
ST_TAG_MASK: ffff

Initialize PATTERN TABLE
PT_SET: 512
PT_WAY: 4
SIG_DELTA_BIT: 7
C_SIG_BIT: 4
C_DELTA_BIT: 4

Initialize PREFETCH FILTER
FILTER_SET: 1024

*** ChampSim Multicore Out-of-Order Simulator ***

Warmup Instructions: 50000000
Simulation Instructions: 50000000
Number of CPUs: 1
LLC sets: 2048
LLC ways: 16
Off-chip DRAM Size: 4096 MB Channels: 1 Width: 64-bit Data Rate: 3200 MT/s

CPU 0 runs /Users/brandon/Documents/CoursesWi22/CSE240C/Homework1/ChampSim/ipc1_public/server_039.champsimtrace.xz
CPU 0 L1I next line prefetcher
CPU 0 L1D next line prefetcher
Heartbeat CPU 0 instructions: 10000003 cycles: 3451459 heartbeat IPC: 2.89733 cumulative IPC: 2.89733 (Simulation time: 0 hr 2 min 5 sec) 
Heartbeat CPU 0 instructions: 20000002 cycles: 6896013 heartbeat IPC: 2.90313 cumulative IPC: 2.90023 (Simulation time: 0 hr 4 min 11 sec) 
Heartbeat CPU 0 instructions: 30000001 cycles: 10342401 heartbeat IPC: 2.90159 cumulative IPC: 2.90068 (Simulation time: 0 hr 6 min 10 sec) 
Heartbeat CPU 0 instructions: 40000002 cycles: 13784177 heartbeat IPC: 2.90548 cumulative IPC: 2.90188 (Simulation time: 0 hr 8 min 11 sec) 
Heartbeat CPU 0 instructions: 50000001 cycles: 17225314 heartbeat IPC: 2.90602 cumulative IPC: 2.9027 (Simulation time: 0 hr 10 min 14 sec) 

Warmup complete CPU 0 instructions: 50000001 cycles: 17225314 (Simulation time: 0 hr 10 min 14 sec) 

Heartbeat CPU 0 instructions: 60000000 cycles: 23000111 heartbeat IPC: 1.73166 cumulative IPC: 1.73166 (Simulation time: 0 hr 12 min 9 sec) 
Heartbeat CPU 0 instructions: 70000000 cycles: 28774323 heartbeat IPC: 1.73184 cumulative IPC: 1.73175 (Simulation time: 0 hr 14 min 9 sec) 
Heartbeat CPU 0 instructions: 80000000 cycles: 34545270 heartbeat IPC: 1.73282 cumulative IPC: 1.73211 (Simulation time: 0 hr 15 min 58 sec) 
Heartbeat CPU 0 instructions: 90000001 cycles: 40321894 heartbeat IPC: 1.73112 cumulative IPC: 1.73186 (Simulation time: 0 hr 17 min 30 sec) 
Heartbeat CPU 0 instructions: 100000002 cycles: 46106165 heartbeat IPC: 1.72883 cumulative IPC: 1.73125 (Simulation time: 0 hr 18 min 56 sec) 
Finished CPU 0 instructions: 50000001 cycles: 28880851 cumulative IPC: 1.73125 (Simulation time: 0 hr 18 min 56 sec) 

ChampSim completed all CPUs

Region of Interest Statistics

CPU 0 cumulative IPC: 1.73125 instructions: 50000001 cycles: 28880851
L1D TOTAL     ACCESS:   19885124  HIT:   19390552  MISS:     494572
L1D LOAD      ACCESS:    6491226  HIT:    6269715  MISS:     221511
L1D RFO       ACCESS:    7089370  HIT:    7022530  MISS:      66840
L1D PREFETCH  ACCESS:    6304528  HIT:    6098307  MISS:     206221
L1D WRITEBACK ACCESS:          0  HIT:          0  MISS:          0
L1D PREFETCH  REQUESTED:    6507228  ISSUED:    6374858  USEFUL:      50135  USELESS:     156090
L1D AVERAGE MISS LATENCY: 15.0779 cycles
L1I TOTAL     ACCESS:   16462440  HIT:   11459291  MISS:    5003149
L1I LOAD      ACCESS:    9347117  HIT:    9308431  MISS:      38686
L1I RFO       ACCESS:          0  HIT:          0  MISS:          0
L1I PREFETCH  ACCESS:    7115323  HIT:    2150860  MISS:    4964463
L1I WRITEBACK ACCESS:          0  HIT:          0  MISS:          0
L1I PREFETCH  REQUESTED:    7322396  ISSUED:    7322396  USEFUL:    4167935  USELESS:     796564
L1I AVERAGE MISS LATENCY: 14.723 cycles
L2C TOTAL     ACCESS:    7414386  HIT:    7414268  MISS:        118
L2C LOAD      ACCESS:     232960  HIT:     232958  MISS:          2
L2C RFO       ACCESS:      66752  HIT:      66752  MISS:          0
L2C PREFETCH  ACCESS:    6934691  HIT:    6934575  MISS:        116
L2C WRITEBACK ACCESS:     179983  HIT:     179983  MISS:          0
L2C PREFETCH  REQUESTED:    6053663  ISSUED:    6053308  USEFUL:          3  USELESS:          0
L2C AVERAGE MISS LATENCY: 43.5339 cycles
LLC TOTAL     ACCESS:     903737  HIT:     903244  MISS:        493
LLC LOAD      ACCESS:          1  HIT:          1  MISS:          0
LLC RFO       ACCESS:          0  HIT:          0  MISS:          0
LLC PREFETCH  ACCESS:     903736  HIT:     903243  MISS:        493
LLC WRITEBACK ACCESS:          0  HIT:          0  MISS:          0
LLC PREFETCH  REQUESTED:          0  ISSUED:          0  USEFUL:          1  USELESS:          0
LLC AVERAGE MISS LATENCY: 173.872 cycles
Major fault: 0 Minor fault: 356
I-Shadow cache 408 bytes
Touched + WorthPF tables 6144 bytes 
MMA filter 174 bytes 
FNL filter 272 bytes 
TOTAL PREFETCHER STORAGE SIZE: 25174 bytes
CPU 0 L1I next line prefetcher final stats
CPU 0 L1D next line prefetcher final stats

DRAM Statistics
 CHANNEL 0
 RQ ROW_BUFFER_HIT:         64  ROW_BUFFER_MISS:        429
 DBUS_CONGESTED:         92
 WQ ROW_BUFFER_HIT:          0  ROW_BUFFER_MISS:          0  FULL:          0

 AVG_CONGESTED_CYCLE: 6

CPU 0 Branch Prediction Accuracy: 99.9091% MPKI: 0.1547 Average ROB Occupancy at Mispredict: 306.627

Branch types
NOT_BRANCH: 41495035 82.9901%
BRANCH_DIRECT_JUMP: 491309 0.982618%
BRANCH_INDIRECT: 0 0%
BRANCH_CONDITIONAL: 5595263 11.1905%
BRANCH_DIRECT_CALL: 1028409 2.05682%
BRANCH_INDIRECT_CALL: 180757 0.361514%
BRANCH_RETURN: 1209171 2.41834%
BRANCH_OTHER: 0 0%

