Initialize SIGNATURE TABLE
ST_SET: 1
ST_WAY: 256
ST_TAG_BIT: 16
ST_TAG_MASK: ffff

Initialize PATTERN TABLE
PT_SET: 512
PT_WAY: 4
SIG_DELTA_BIT: 7
C_SIG_BIT: 4
C_DELTA_BIT: 4

Initialize PREFETCH FILTER
FILTER_SET: 1024

*** ChampSim Multicore Out-of-Order Simulator ***

Warmup Instructions: 50000000
Simulation Instructions: 50000000
Number of CPUs: 1
LLC sets: 2048
LLC ways: 16
Off-chip DRAM Size: 4096 MB Channels: 1 Width: 64-bit Data Rate: 3200 MT/s

CPU 0 runs /Users/brandon/Documents/CoursesWi22/CSE240C/Homework1/ChampSim/ipc1_public/server_015.champsimtrace.xz
CPU 0 L1I next line prefetcher
CPU 0 L1D next line prefetcher
Heartbeat CPU 0 instructions: 10000002 cycles: 3519376 heartbeat IPC: 2.84141 cumulative IPC: 2.84141 (Simulation time: 0 hr 1 min 36 sec) 
Heartbeat CPU 0 instructions: 20000001 cycles: 7106950 heartbeat IPC: 2.7874 cumulative IPC: 2.81415 (Simulation time: 0 hr 3 min 27 sec) 
Heartbeat CPU 0 instructions: 30000001 cycles: 10645919 heartbeat IPC: 2.82568 cumulative IPC: 2.81798 (Simulation time: 0 hr 5 min 22 sec) 
Heartbeat CPU 0 instructions: 40000002 cycles: 14193960 heartbeat IPC: 2.81846 cumulative IPC: 2.8181 (Simulation time: 0 hr 7 min 24 sec) 
Heartbeat CPU 0 instructions: 50000002 cycles: 17742220 heartbeat IPC: 2.81828 cumulative IPC: 2.81814 (Simulation time: 0 hr 9 min 31 sec) 

Warmup complete CPU 0 instructions: 50000002 cycles: 17742220 (Simulation time: 0 hr 9 min 31 sec) 

Heartbeat CPU 0 instructions: 60000002 cycles: 24044038 heartbeat IPC: 1.58684 cumulative IPC: 1.58684 (Simulation time: 0 hr 11 min 42 sec) 
Heartbeat CPU 0 instructions: 70000003 cycles: 30354541 heartbeat IPC: 1.58466 cumulative IPC: 1.58575 (Simulation time: 0 hr 13 min 59 sec) 
Heartbeat CPU 0 instructions: 80000000 cycles: 36664938 heartbeat IPC: 1.58469 cumulative IPC: 1.5854 (Simulation time: 0 hr 16 min 19 sec) 
Heartbeat CPU 0 instructions: 90000000 cycles: 42979428 heartbeat IPC: 1.58366 cumulative IPC: 1.58496 (Simulation time: 0 hr 18 min 8 sec) 
Heartbeat CPU 0 instructions: 100000002 cycles: 49290355 heartbeat IPC: 1.58455 cumulative IPC: 1.58488 (Simulation time: 0 hr 19 min 6 sec) 
Finished CPU 0 instructions: 50000000 cycles: 31548135 cumulative IPC: 1.58488 (Simulation time: 0 hr 19 min 6 sec) 

ChampSim completed all CPUs

Region of Interest Statistics

CPU 0 cumulative IPC: 1.58488 instructions: 50000000 cycles: 31548135
L1D TOTAL     ACCESS:   21840453  HIT:   21823686  MISS:      16767
L1D LOAD      ACCESS:    6697575  HIT:    6697045  MISS:        530
L1D RFO       ACCESS:    8561421  HIT:    8561325  MISS:         96
L1D PREFETCH  ACCESS:    6581457  HIT:    6565316  MISS:      16141
L1D WRITEBACK ACCESS:          0  HIT:          0  MISS:          0
L1D PREFETCH  REQUESTED:    6697636  ISSUED:    6585835  USEFUL:         83  USELESS:      16055
L1D AVERAGE MISS LATENCY: 16.7736 cycles
L1I TOTAL     ACCESS:   15702463  HIT:   13372753  MISS:    2329710
L1I LOAD      ACCESS:    9776022  HIT:    9729454  MISS:      46568
L1I RFO       ACCESS:          0  HIT:          0  MISS:          0
L1I PREFETCH  ACCESS:    5926441  HIT:    3643299  MISS:    2283142
L1I WRITEBACK ACCESS:          0  HIT:          0  MISS:          0
L1I PREFETCH  REQUESTED:    6128554  ISSUED:    6128554  USEFUL:    1993327  USELESS:     289803
L1I AVERAGE MISS LATENCY: 14.2682 cycles
L2C TOTAL     ACCESS:    3174540  HIT:    3174221  MISS:        319
L2C LOAD      ACCESS:      16727  HIT:      16648  MISS:         79
L2C RFO       ACCESS:         95  HIT:         93  MISS:          2
L2C PREFETCH  ACCESS:    3157369  HIT:    3157131  MISS:        238
L2C WRITEBACK ACCESS:        349  HIT:        349  MISS:          0
L2C PREFETCH  REQUESTED:    2389270  ISSUED:    2389240  USEFUL:        131  USELESS:        133
L2C AVERAGE MISS LATENCY: 153.621 cycles
LLC TOTAL     ACCESS:     511667  HIT:     510682  MISS:        985
LLC LOAD      ACCESS:         79  HIT:         63  MISS:         16
LLC RFO       ACCESS:          2  HIT:          0  MISS:          2
LLC PREFETCH  ACCESS:     511491  HIT:     510528  MISS:        963
LLC WRITEBACK ACCESS:         95  HIT:         91  MISS:          4
LLC PREFETCH  REQUESTED:          0  ISSUED:          0  USEFUL:          9  USELESS:        191
LLC AVERAGE MISS LATENCY: 654.004 cycles
Major fault: 0 Minor fault: 1892
I-Shadow cache 408 bytes
Touched + WorthPF tables 6144 bytes 
MMA filter 174 bytes 
FNL filter 272 bytes 
TOTAL PREFETCHER STORAGE SIZE: 25174 bytes
CPU 0 L1I next line prefetcher final stats
CPU 0 L1D next line prefetcher final stats

DRAM Statistics
 CHANNEL 0
 RQ ROW_BUFFER_HIT:        238  ROW_BUFFER_MISS:        743
 DBUS_CONGESTED:        787
 WQ ROW_BUFFER_HIT:        106  ROW_BUFFER_MISS:        617  FULL:          0

 AVG_CONGESTED_CYCLE: 6

CPU 0 Branch Prediction Accuracy: 99.9085% MPKI: 0.15428 Average ROB Occupancy at Mispredict: 290.234

Branch types
NOT_BRANCH: 41573130 83.1463%
BRANCH_DIRECT_JUMP: 436254 0.872508%
BRANCH_INDIRECT: 0 0%
BRANCH_CONDITIONAL: 5395897 10.7918%
BRANCH_DIRECT_CALL: 1173391 2.34678%
BRANCH_INDIRECT_CALL: 123911 0.247822%
BRANCH_RETURN: 1297311 2.59462%
BRANCH_OTHER: 0 0%

