Initialize SIGNATURE TABLE
ST_SET: 1
ST_WAY: 256
ST_TAG_BIT: 16
ST_TAG_MASK: ffff

Initialize PATTERN TABLE
PT_SET: 512
PT_WAY: 4
SIG_DELTA_BIT: 7
C_SIG_BIT: 4
C_DELTA_BIT: 4

Initialize PREFETCH FILTER
FILTER_SET: 1024

*** ChampSim Multicore Out-of-Order Simulator ***

Warmup Instructions: 50000000
Simulation Instructions: 50000000
Number of CPUs: 1
LLC sets: 2048
LLC ways: 16
Off-chip DRAM Size: 4096 MB Channels: 1 Width: 64-bit Data Rate: 3200 MT/s

CPU 0 runs /Users/brandon/Documents/CoursesWi22/CSE240C/Homework1/ChampSim/ipc1_public/server_002.champsimtrace.xz
CPU 0 L1I next line prefetcher
CPU 0 L1D next line prefetcher
Heartbeat CPU 0 instructions: 10000000 cycles: 3581210 heartbeat IPC: 2.79235 cumulative IPC: 2.79235 (Simulation time: 0 hr 1 min 34 sec) 
Heartbeat CPU 0 instructions: 20000002 cycles: 7169994 heartbeat IPC: 2.78646 cumulative IPC: 2.7894 (Simulation time: 0 hr 3 min 23 sec) 
Heartbeat CPU 0 instructions: 30000000 cycles: 10710713 heartbeat IPC: 2.82428 cumulative IPC: 2.80093 (Simulation time: 0 hr 5 min 14 sec) 
Heartbeat CPU 0 instructions: 40000000 cycles: 14260958 heartbeat IPC: 2.81671 cumulative IPC: 2.80486 (Simulation time: 0 hr 7 min 13 sec) 
Heartbeat CPU 0 instructions: 50000001 cycles: 17808729 heartbeat IPC: 2.81867 cumulative IPC: 2.80761 (Simulation time: 0 hr 9 min 18 sec) 

Warmup complete CPU 0 instructions: 50000001 cycles: 17808729 (Simulation time: 0 hr 9 min 18 sec) 

Heartbeat CPU 0 instructions: 60000000 cycles: 24250686 heartbeat IPC: 1.55232 cumulative IPC: 1.55232 (Simulation time: 0 hr 11 min 26 sec) 
Heartbeat CPU 0 instructions: 70000003 cycles: 30684262 heartbeat IPC: 1.55435 cumulative IPC: 1.55333 (Simulation time: 0 hr 13 min 38 sec) 
Heartbeat CPU 0 instructions: 80000003 cycles: 37120403 heartbeat IPC: 1.55373 cumulative IPC: 1.55346 (Simulation time: 0 hr 15 min 54 sec) 
Heartbeat CPU 0 instructions: 90000002 cycles: 43555728 heartbeat IPC: 1.55392 cumulative IPC: 1.55358 (Simulation time: 0 hr 17 min 52 sec) 
Heartbeat CPU 0 instructions: 100000003 cycles: 49989354 heartbeat IPC: 1.55433 cumulative IPC: 1.55373 (Simulation time: 0 hr 18 min 56 sec) 
Finished CPU 0 instructions: 50000002 cycles: 32180625 cumulative IPC: 1.55373 (Simulation time: 0 hr 18 min 56 sec) 

ChampSim completed all CPUs

Region of Interest Statistics

CPU 0 cumulative IPC: 1.55373 instructions: 50000002 cycles: 32180625
L1D TOTAL     ACCESS:   21524684  HIT:   21523875  MISS:        809
L1D LOAD      ACCESS:    6602017  HIT:    6601644  MISS:        373
L1D RFO       ACCESS:    8433023  HIT:    8432909  MISS:        114
L1D PREFETCH  ACCESS:    6489644  HIT:    6489322  MISS:        322
L1D WRITEBACK ACCESS:          0  HIT:          0  MISS:          0
L1D PREFETCH  REQUESTED:    6602070  ISSUED:    6497005  USEFUL:         94  USELESS:        230
L1D AVERAGE MISS LATENCY: 38.3251 cycles
L1I TOTAL     ACCESS:   14919198  HIT:   13812325  MISS:    1106873
L1I LOAD      ACCESS:    9851544  HIT:    9828320  MISS:      23224
L1I RFO       ACCESS:          0  HIT:          0  MISS:          0
L1I PREFETCH  ACCESS:    5067654  HIT:    3984005  MISS:    1083649
L1I WRITEBACK ACCESS:          0  HIT:          0  MISS:          0
L1I PREFETCH  REQUESTED:    5158350  ISSUED:    5158350  USEFUL:     925621  USELESS:     158040
L1I AVERAGE MISS LATENCY: 14.03 cycles
L2C TOTAL     ACCESS:    1372174  HIT:    1371837  MISS:        337
L2C LOAD      ACCESS:       6207  HIT:       6126  MISS:         81
L2C RFO       ACCESS:        113  HIT:        109  MISS:          4
L2C PREFETCH  ACCESS:    1365518  HIT:    1365266  MISS:        252
L2C WRITEBACK ACCESS:        336  HIT:        336  MISS:          0
L2C PREFETCH  REQUESTED:     857473  ISSUED:     857452  USEFUL:        111  USELESS:        139
L2C AVERAGE MISS LATENCY: 113.828 cycles
LLC TOTAL     ACCESS:     259559  HIT:     258673  MISS:        886
LLC LOAD      ACCESS:         81  HIT:         65  MISS:         16
LLC RFO       ACCESS:          4  HIT:          2  MISS:          2
LLC PREFETCH  ACCESS:     259379  HIT:     258512  MISS:        867
LLC WRITEBACK ACCESS:         95  HIT:         94  MISS:          1
LLC PREFETCH  REQUESTED:          0  ISSUED:          0  USEFUL:         13  USELESS:        261
LLC AVERAGE MISS LATENCY: 365.482 cycles
Major fault: 0 Minor fault: 1871
I-Shadow cache 408 bytes
Touched + WorthPF tables 6144 bytes 
MMA filter 174 bytes 
FNL filter 272 bytes 
TOTAL PREFETCHER STORAGE SIZE: 25174 bytes
CPU 0 L1I next line prefetcher final stats
CPU 0 L1D next line prefetcher final stats

DRAM Statistics
 CHANNEL 0
 RQ ROW_BUFFER_HIT:        166  ROW_BUFFER_MISS:        719
 DBUS_CONGESTED:        580
 WQ ROW_BUFFER_HIT:         82  ROW_BUFFER_MISS:        466  FULL:          0

 AVG_CONGESTED_CYCLE: 6

CPU 0 Branch Prediction Accuracy: 99.8789% MPKI: 0.20388 Average ROB Occupancy at Mispredict: 286.046

Branch types
NOT_BRANCH: 41580695 83.1614%
BRANCH_DIRECT_JUMP: 461630 0.92326%
BRANCH_INDIRECT: 0 0%
BRANCH_CONDITIONAL: 5376437 10.7529%
BRANCH_DIRECT_CALL: 1175775 2.35155%
BRANCH_INDIRECT_CALL: 114840 0.22968%
BRANCH_RETURN: 1290625 2.58125%
BRANCH_OTHER: 0 0%

