Initialize SIGNATURE TABLE
ST_SET: 1
ST_WAY: 256
ST_TAG_BIT: 16
ST_TAG_MASK: ffff

Initialize PATTERN TABLE
PT_SET: 512
PT_WAY: 4
SIG_DELTA_BIT: 7
C_SIG_BIT: 4
C_DELTA_BIT: 4

Initialize PREFETCH FILTER
FILTER_SET: 1024

*** ChampSim Multicore Out-of-Order Simulator ***

Warmup Instructions: 50000000
Simulation Instructions: 50000000
Number of CPUs: 1
LLC sets: 2048
LLC ways: 16
Off-chip DRAM Size: 4096 MB Channels: 1 Width: 64-bit Data Rate: 3200 MT/s

CPU 0 runs /Users/brandon/Documents/CoursesWi22/CSE240C/Homework1/ChampSim/ipc1_public/server_010.champsimtrace.xz
CPU 0 L1I next line prefetcher
CPU 0 L1D next line prefetcher
Heartbeat CPU 0 instructions: 10000000 cycles: 3198849 heartbeat IPC: 3.12612 cumulative IPC: 3.12612 (Simulation time: 0 hr 1 min 31 sec) 
Heartbeat CPU 0 instructions: 20000002 cycles: 6393542 heartbeat IPC: 3.13019 cumulative IPC: 3.12816 (Simulation time: 0 hr 3 min 15 sec) 
Heartbeat CPU 0 instructions: 30000001 cycles: 9591745 heartbeat IPC: 3.12676 cumulative IPC: 3.12769 (Simulation time: 0 hr 5 min 0 sec) 
Heartbeat CPU 0 instructions: 40000000 cycles: 12785636 heartbeat IPC: 3.13098 cumulative IPC: 3.12851 (Simulation time: 0 hr 6 min 50 sec) 
Heartbeat CPU 0 instructions: 50000003 cycles: 15985124 heartbeat IPC: 3.1255 cumulative IPC: 3.12791 (Simulation time: 0 hr 8 min 47 sec) 

Warmup complete CPU 0 instructions: 50000003 cycles: 15985124 (Simulation time: 0 hr 8 min 47 sec) 

Heartbeat CPU 0 instructions: 60000001 cycles: 23513396 heartbeat IPC: 1.32833 cumulative IPC: 1.32833 (Simulation time: 0 hr 10 min 31 sec) 
Heartbeat CPU 0 instructions: 70000000 cycles: 31192694 heartbeat IPC: 1.3022 cumulative IPC: 1.31513 (Simulation time: 0 hr 12 min 18 sec) 
Heartbeat CPU 0 instructions: 80000003 cycles: 38924797 heartbeat IPC: 1.29331 cumulative IPC: 1.30778 (Simulation time: 0 hr 14 min 9 sec) 
Heartbeat CPU 0 instructions: 90000002 cycles: 46385051 heartbeat IPC: 1.34044 cumulative IPC: 1.31579 (Simulation time: 0 hr 16 min 0 sec) 
Heartbeat CPU 0 instructions: 100000003 cycles: 67152878 heartbeat IPC: 0.481514 cumulative IPC: 0.977178 (Simulation time: 0 hr 18 min 25 sec) 
Finished CPU 0 instructions: 50000000 cycles: 51167754 cumulative IPC: 0.977178 (Simulation time: 0 hr 18 min 25 sec) 

ChampSim completed all CPUs

Region of Interest Statistics

CPU 0 cumulative IPC: 0.977178 instructions: 50000000 cycles: 51167754
L1D TOTAL     ACCESS:   20001958  HIT:   16776526  MISS:    3225432
L1D LOAD      ACCESS:    7755980  HIT:    6163251  MISS:    1592729
L1D RFO       ACCESS:    4714205  HIT:    4619886  MISS:      94319
L1D PREFETCH  ACCESS:    7531773  HIT:    5993389  MISS:    1538384
L1D WRITEBACK ACCESS:          0  HIT:          0  MISS:          0
L1D PREFETCH  REQUESTED:    7789409  ISSUED:    7691530  USEFUL:     117678  USELESS:    1420679
L1D AVERAGE MISS LATENCY: 23.2467 cycles
L1I TOTAL     ACCESS:   12824218  HIT:   10818327  MISS:    2005891
L1I LOAD      ACCESS:    9923929  HIT:    9652590  MISS:     271339
L1I RFO       ACCESS:          0  HIT:          0  MISS:          0
L1I PREFETCH  ACCESS:    2900289  HIT:    1165737  MISS:    1734552
L1I WRITEBACK ACCESS:          0  HIT:          0  MISS:          0
L1I PREFETCH  REQUESTED:    3141165  ISSUED:    3140635  USEFUL:    1026723  USELESS:     707781
L1I AVERAGE MISS LATENCY: 29.8837 cycles
L2C TOTAL     ACCESS:    6571196  HIT:    5272806  MISS:    1298390
L2C LOAD      ACCESS:    1728461  HIT:    1432064  MISS:     296397
L2C RFO       ACCESS:      93327  HIT:      47122  MISS:      46205
L2C PREFETCH  ACCESS:    4484070  HIT:    3530279  MISS:     953791
L2C WRITEBACK ACCESS:     265338  HIT:     263341  MISS:       1997
L2C PREFETCH  REQUESTED:    5859138  ISSUED:    5855548  USEFUL:      35193  USELESS:     919642
L2C AVERAGE MISS LATENCY: 47.8249 cycles
LLC TOTAL     ACCESS:    2586653  HIT:    2429718  MISS:     156935
LLC LOAD      ACCESS:     296286  HIT:     272672  MISS:      23614
LLC RFO       ACCESS:      46197  HIT:      36101  MISS:      10096
LLC PREFETCH  ACCESS:    2087813  HIT:    1964796  MISS:     123017
LLC WRITEBACK ACCESS:     156357  HIT:     156149  MISS:        208
LLC PREFETCH  REQUESTED:          0  ISSUED:          0  USEFUL:      10730  USELESS:     112634
LLC AVERAGE MISS LATENCY: 174.077 cycles
Major fault: 0 Minor fault: 5609
I-Shadow cache 408 bytes
Touched + WorthPF tables 6144 bytes 
MMA filter 174 bytes 
FNL filter 272 bytes 
TOTAL PREFETCHER STORAGE SIZE: 25174 bytes
CPU 0 L1I next line prefetcher final stats
CPU 0 L1D next line prefetcher final stats

DRAM Statistics
 CHANNEL 0
 RQ ROW_BUFFER_HIT:      25046  ROW_BUFFER_MISS:     131635
 DBUS_CONGESTED:      71605
 WQ ROW_BUFFER_HIT:      10972  ROW_BUFFER_MISS:      45788  FULL:          0

 AVG_CONGESTED_CYCLE: 5

CPU 0 Branch Prediction Accuracy: 99.5528% MPKI: 0.89798 Average ROB Occupancy at Mispredict: 118.09

Branch types
NOT_BRANCH: 39958786 79.9176%
BRANCH_DIRECT_JUMP: 449946 0.899892%
BRANCH_INDIRECT: 140210 0.28042%
BRANCH_CONDITIONAL: 7679676 15.3594%
BRANCH_DIRECT_CALL: 701578 1.40316%
BRANCH_INDIRECT_CALL: 168971 0.337942%
BRANCH_RETURN: 900560 1.80112%
BRANCH_OTHER: 0 0%

