Initialize SIGNATURE TABLE
ST_SET: 1
ST_WAY: 256
ST_TAG_BIT: 16
ST_TAG_MASK: ffff

Initialize PATTERN TABLE
PT_SET: 512
PT_WAY: 4
SIG_DELTA_BIT: 7
C_SIG_BIT: 4
C_DELTA_BIT: 4

Initialize PREFETCH FILTER
FILTER_SET: 1024

*** ChampSim Multicore Out-of-Order Simulator ***

Warmup Instructions: 50000000
Simulation Instructions: 50000000
Number of CPUs: 1
LLC sets: 2048
LLC ways: 16
Off-chip DRAM Size: 4096 MB Channels: 1 Width: 64-bit Data Rate: 3200 MT/s

CPU 0 runs /Users/brandon/Documents/CoursesWi22/CSE240C/Homework1/ChampSim/ipc1_public/server_012.champsimtrace.xz
CPU 0 L1I next line prefetcher
CPU 0 L1D next line prefetcher
Heartbeat CPU 0 instructions: 10000002 cycles: 3196393 heartbeat IPC: 3.12853 cumulative IPC: 3.12853 (Simulation time: 0 hr 1 min 30 sec) 
Heartbeat CPU 0 instructions: 20000002 cycles: 6395384 heartbeat IPC: 3.12599 cumulative IPC: 3.12726 (Simulation time: 0 hr 3 min 14 sec) 
Heartbeat CPU 0 instructions: 30000001 cycles: 9595308 heartbeat IPC: 3.12507 cumulative IPC: 3.12653 (Simulation time: 0 hr 5 min 0 sec) 
Heartbeat CPU 0 instructions: 40000000 cycles: 12800924 heartbeat IPC: 3.11952 cumulative IPC: 3.12477 (Simulation time: 0 hr 6 min 51 sec) 
Heartbeat CPU 0 instructions: 50000003 cycles: 16000041 heartbeat IPC: 3.12586 cumulative IPC: 3.12499 (Simulation time: 0 hr 8 min 47 sec) 

Warmup complete CPU 0 instructions: 50000003 cycles: 16000041 (Simulation time: 0 hr 8 min 47 sec) 

Heartbeat CPU 0 instructions: 60000002 cycles: 23472083 heartbeat IPC: 1.33832 cumulative IPC: 1.33832 (Simulation time: 0 hr 10 min 30 sec) 
Heartbeat CPU 0 instructions: 70000000 cycles: 31014920 heartbeat IPC: 1.32576 cumulative IPC: 1.33201 (Simulation time: 0 hr 12 min 17 sec) 
Heartbeat CPU 0 instructions: 80000003 cycles: 38562129 heartbeat IPC: 1.32499 cumulative IPC: 1.32966 (Simulation time: 0 hr 14 min 6 sec) 
Heartbeat CPU 0 instructions: 90000001 cycles: 46396892 heartbeat IPC: 1.27636 cumulative IPC: 1.31593 (Simulation time: 0 hr 15 min 57 sec) 
Heartbeat CPU 0 instructions: 100000002 cycles: 54076792 heartbeat IPC: 1.3021 cumulative IPC: 1.31314 (Simulation time: 0 hr 17 min 39 sec) 
Finished CPU 0 instructions: 50000001 cycles: 38076752 cumulative IPC: 1.31314 (Simulation time: 0 hr 17 min 39 sec) 

ChampSim completed all CPUs

Region of Interest Statistics

CPU 0 cumulative IPC: 1.31314 instructions: 50000001 cycles: 38076752
L1D TOTAL     ACCESS:   17457354  HIT:   16414242  MISS:    1043112
L1D LOAD      ACCESS:    6368050  HIT:    5881285  MISS:     486765
L1D RFO       ACCESS:    4963983  HIT:    4882171  MISS:      81812
L1D PREFETCH  ACCESS:    6125321  HIT:    5650786  MISS:     474535
L1D WRITEBACK ACCESS:          0  HIT:          0  MISS:          0
L1D PREFETCH  REQUESTED:    6403058  ISSUED:    6302945  USEFUL:     133787  USELESS:     340769
L1D AVERAGE MISS LATENCY: 42.2116 cycles
L1I TOTAL     ACCESS:   11916552  HIT:    9626318  MISS:    2290234
L1I LOAD      ACCESS:    8684843  HIT:    8367029  MISS:     317814
L1I RFO       ACCESS:          0  HIT:          0  MISS:          0
L1I PREFETCH  ACCESS:    3231709  HIT:    1259289  MISS:    1972420
L1I WRITEBACK ACCESS:          0  HIT:          0  MISS:          0
L1I PREFETCH  REQUESTED:    3510019  ISSUED:    3509660  USEFUL:    1176552  USELESS:     795895
L1I AVERAGE MISS LATENCY: 29.9662 cycles
L2C TOTAL     ACCESS:    4181894  HIT:    2716035  MISS:    1465859
L2C LOAD      ACCESS:     652988  HIT:     317805  MISS:     335183
L2C RFO       ACCESS:      80683  HIT:      29340  MISS:      51343
L2C PREFETCH  ACCESS:    3172727  HIT:    2096013  MISS:    1076714
L2C WRITEBACK ACCESS:     275496  HIT:     272877  MISS:       2619
L2C PREFETCH  REQUESTED:    3917650  ISSUED:    3913598  USEFUL:      40645  USELESS:    1036093
L2C AVERAGE MISS LATENCY: 48.0873 cycles
LLC TOTAL     ACCESS:    2612703  HIT:    2427304  MISS:     185399
LLC LOAD      ACCESS:     335035  HIT:     307772  MISS:      27263
LLC RFO       ACCESS:      51333  HIT:      40063  MISS:      11270
LLC PREFETCH  ACCESS:    2051395  HIT:    1904876  MISS:     146519
LLC WRITEBACK ACCESS:     174940  HIT:     174593  MISS:        347
LLC PREFETCH  REQUESTED:          0  ISSUED:          0  USEFUL:      12276  USELESS:     134143
LLC AVERAGE MISS LATENCY: 172.004 cycles
Major fault: 0 Minor fault: 5610
I-Shadow cache 408 bytes
Touched + WorthPF tables 6144 bytes 
MMA filter 174 bytes 
FNL filter 272 bytes 
TOTAL PREFETCHER STORAGE SIZE: 25174 bytes
CPU 0 L1I next line prefetcher final stats
CPU 0 L1D next line prefetcher final stats

DRAM Statistics
 CHANNEL 0
 RQ ROW_BUFFER_HIT:      31024  ROW_BUFFER_MISS:     153990
 DBUS_CONGESTED:      81701
 WQ ROW_BUFFER_HIT:      11942  ROW_BUFFER_MISS:      50299  FULL:          0

 AVG_CONGESTED_CYCLE: 5

CPU 0 Branch Prediction Accuracy: 99.4607% MPKI: 1.00288 Average ROB Occupancy at Mispredict: 111.137

Branch types
NOT_BRANCH: 40701007 81.402%
BRANCH_DIRECT_JUMP: 469809 0.939618%
BRANCH_INDIRECT: 153732 0.307464%
BRANCH_CONDITIONAL: 6944067 13.8881%
BRANCH_DIRECT_CALL: 679878 1.35976%
BRANCH_INDIRECT_CALL: 168745 0.33749%
BRANCH_RETURN: 882492 1.76498%
BRANCH_OTHER: 0 0%

