Initialize SIGNATURE TABLE
ST_SET: 1
ST_WAY: 256
ST_TAG_BIT: 16
ST_TAG_MASK: ffff

Initialize PATTERN TABLE
PT_SET: 512
PT_WAY: 4
SIG_DELTA_BIT: 7
C_SIG_BIT: 4
C_DELTA_BIT: 4

Initialize PREFETCH FILTER
FILTER_SET: 1024

*** ChampSim Multicore Out-of-Order Simulator ***

Warmup Instructions: 50000000
Simulation Instructions: 50000000
Number of CPUs: 1
LLC sets: 2048
LLC ways: 16
Off-chip DRAM Size: 4096 MB Channels: 1 Width: 64-bit Data Rate: 3200 MT/s

CPU 0 runs /Users/brandon/Documents/CoursesWi22/CSE240C/Homework1/ChampSim/ipc1_public/spec_gcc_001.champsimtrace.xz
CPU 0 L1I next line prefetcher
CPU 0 L1D next line prefetcher
Heartbeat CPU 0 instructions: 10000003 cycles: 3219504 heartbeat IPC: 3.10607 cumulative IPC: 3.10607 (Simulation time: 0 hr 1 min 49 sec) 
Heartbeat CPU 0 instructions: 20000002 cycles: 6464337 heartbeat IPC: 3.08182 cumulative IPC: 3.0939 (Simulation time: 0 hr 3 min 44 sec) 
Heartbeat CPU 0 instructions: 30000000 cycles: 9665593 heartbeat IPC: 3.12377 cumulative IPC: 3.10379 (Simulation time: 0 hr 5 min 30 sec) 
Heartbeat CPU 0 instructions: 40000001 cycles: 12907237 heartbeat IPC: 3.08485 cumulative IPC: 3.09904 (Simulation time: 0 hr 7 min 13 sec) 
Heartbeat CPU 0 instructions: 50000001 cycles: 16147884 heartbeat IPC: 3.0858 cumulative IPC: 3.09638 (Simulation time: 0 hr 9 min 4 sec) 

Warmup complete CPU 0 instructions: 50000001 cycles: 16147884 (Simulation time: 0 hr 9 min 4 sec) 

Heartbeat CPU 0 instructions: 60000000 cycles: 23905654 heartbeat IPC: 1.28903 cumulative IPC: 1.28903 (Simulation time: 0 hr 10 min 36 sec) 
Heartbeat CPU 0 instructions: 70000002 cycles: 31797069 heartbeat IPC: 1.2672 cumulative IPC: 1.27802 (Simulation time: 0 hr 12 min 11 sec) 
Heartbeat CPU 0 instructions: 80000000 cycles: 39347826 heartbeat IPC: 1.32437 cumulative IPC: 1.29311 (Simulation time: 0 hr 13 min 44 sec) 
Heartbeat CPU 0 instructions: 90000001 cycles: 47224573 heartbeat IPC: 1.26956 cumulative IPC: 1.28714 (Simulation time: 0 hr 15 min 15 sec) 
Heartbeat CPU 0 instructions: 100000000 cycles: 55410498 heartbeat IPC: 1.22161 cumulative IPC: 1.27348 (Simulation time: 0 hr 16 min 38 sec) 
Finished CPU 0 instructions: 50000000 cycles: 39262618 cumulative IPC: 1.27348 (Simulation time: 0 hr 16 min 38 sec) 

ChampSim completed all CPUs

Region of Interest Statistics

CPU 0 cumulative IPC: 1.27348 instructions: 50000000 cycles: 39262618
L1D TOTAL     ACCESS:   19348697  HIT:   18243530  MISS:    1105167
L1D LOAD      ACCESS:    7244984  HIT:    6765313  MISS:     479671
L1D RFO       ACCESS:    5118249  HIT:    5038659  MISS:      79590
L1D PREFETCH  ACCESS:    6985464  HIT:    6439558  MISS:     545906
L1D WRITEBACK ACCESS:          0  HIT:          0  MISS:          0
L1D PREFETCH  REQUESTED:    7289413  ISSUED:    7191344  USEFUL:     275667  USELESS:     270251
L1D AVERAGE MISS LATENCY: 25.8521 cycles
L1I TOTAL     ACCESS:   11068821  HIT:   10483737  MISS:     585084
L1I LOAD      ACCESS:    9287718  HIT:    9168526  MISS:     119192
L1I RFO       ACCESS:          0  HIT:          0  MISS:          0
L1I PREFETCH  ACCESS:    1781103  HIT:    1315211  MISS:     465892
L1I WRITEBACK ACCESS:          0  HIT:          0  MISS:          0
L1I PREFETCH  REQUESTED:    1859907  ISSUED:    1859869  USEFUL:     262360  USELESS:     203551
L1I AVERAGE MISS LATENCY: 22.0563 cycles
L2C TOTAL     ACCESS:    2829545  HIT:    2557099  MISS:     272446
L2C LOAD      ACCESS:     555047  HIT:     467852  MISS:      87195
L2C RFO       ACCESS:      75025  HIT:      35607  MISS:      39418
L2C PREFETCH  ACCESS:    1945714  HIT:    1800298  MISS:     145416
L2C WRITEBACK ACCESS:     253759  HIT:     253342  MISS:        417
L2C PREFETCH  REQUESTED:    2088868  ISSUED:    2088713  USEFUL:      34043  USELESS:     111173
L2C AVERAGE MISS LATENCY: 65.802 cycles
LLC TOTAL     ACCESS:     693101  HIT:     615161  MISS:      77940
LLC LOAD      ACCESS:      86981  HIT:      78030  MISS:       8951
LLC RFO       ACCESS:      39416  HIT:      18722  MISS:      20694
LLC PREFETCH  ACCESS:     472201  HIT:     424966  MISS:      47235
LLC WRITEBACK ACCESS:      94503  HIT:      93443  MISS:       1060
LLC PREFETCH  REQUESTED:          0  ISSUED:          0  USEFUL:      10926  USELESS:      40588
LLC AVERAGE MISS LATENCY: 190.614 cycles
Major fault: 0 Minor fault: 6877
I-Shadow cache 408 bytes
Touched + WorthPF tables 6144 bytes 
MMA filter 174 bytes 
FNL filter 272 bytes 
TOTAL PREFETCHER STORAGE SIZE: 25174 bytes
CPU 0 L1I next line prefetcher final stats
CPU 0 L1D next line prefetcher final stats

DRAM Statistics
 CHANNEL 0
 RQ ROW_BUFFER_HIT:      21455  ROW_BUFFER_MISS:      55424
 DBUS_CONGESTED:      47425
 WQ ROW_BUFFER_HIT:       3745  ROW_BUFFER_MISS:      24518  FULL:          0

 AVG_CONGESTED_CYCLE: 6

CPU 0 Branch Prediction Accuracy: 95.8872% MPKI: 9.67286 Average ROB Occupancy at Mispredict: 66.2118

Branch types
NOT_BRANCH: 38240105 76.4802%
BRANCH_DIRECT_JUMP: 653296 1.30659%
BRANCH_INDIRECT: 37098 0.074196%
BRANCH_CONDITIONAL: 8897820 17.7956%
BRANCH_DIRECT_CALL: 992620 1.98524%
BRANCH_INDIRECT_CALL: 93046 0.186092%
BRANCH_RETURN: 1085674 2.17135%
BRANCH_OTHER: 0 0%

