Initialize SIGNATURE TABLE
ST_SET: 1
ST_WAY: 256
ST_TAG_BIT: 16
ST_TAG_MASK: ffff

Initialize PATTERN TABLE
PT_SET: 512
PT_WAY: 4
SIG_DELTA_BIT: 7
C_SIG_BIT: 4
C_DELTA_BIT: 4

Initialize PREFETCH FILTER
FILTER_SET: 1024

*** ChampSim Multicore Out-of-Order Simulator ***

Warmup Instructions: 50000000
Simulation Instructions: 50000000
Number of CPUs: 1
LLC sets: 2048
LLC ways: 16
Off-chip DRAM Size: 4096 MB Channels: 1 Width: 64-bit Data Rate: 3200 MT/s

CPU 0 runs /Users/brandon/Documents/CoursesWi22/CSE240C/Homework1/ChampSim/ipc1_public/spec_x264_001.champsimtrace.xz
CPU 0 L1I next line prefetcher
CPU 0 L1D next line prefetcher
Heartbeat CPU 0 instructions: 10000002 cycles: 3060349 heartbeat IPC: 3.2676 cumulative IPC: 3.2676 (Simulation time: 0 hr 1 min 20 sec) 
Heartbeat CPU 0 instructions: 20000002 cycles: 6110869 heartbeat IPC: 3.27813 cumulative IPC: 3.27286 (Simulation time: 0 hr 2 min 43 sec) 
Heartbeat CPU 0 instructions: 30000002 cycles: 9146817 heartbeat IPC: 3.29386 cumulative IPC: 3.27983 (Simulation time: 0 hr 4 min 5 sec) 
Heartbeat CPU 0 instructions: 40000000 cycles: 12191929 heartbeat IPC: 3.28395 cumulative IPC: 3.28086 (Simulation time: 0 hr 5 min 23 sec) 
Heartbeat CPU 0 instructions: 50000000 cycles: 15235414 heartbeat IPC: 3.28571 cumulative IPC: 3.28183 (Simulation time: 0 hr 6 min 38 sec) 

Warmup complete CPU 0 instructions: 50000004 cycles: 15235415 (Simulation time: 0 hr 6 min 38 sec) 

Heartbeat CPU 0 instructions: 60000002 cycles: 21161198 heartbeat IPC: 1.68754 cumulative IPC: 1.68754 (Simulation time: 0 hr 7 min 22 sec) 
Heartbeat CPU 0 instructions: 70000000 cycles: 27073134 heartbeat IPC: 1.69149 cumulative IPC: 1.68951 (Simulation time: 0 hr 8 min 6 sec) 
Heartbeat CPU 0 instructions: 80000003 cycles: 33124288 heartbeat IPC: 1.65258 cumulative IPC: 1.67702 (Simulation time: 0 hr 8 min 51 sec) 
Heartbeat CPU 0 instructions: 90000002 cycles: 39154599 heartbeat IPC: 1.65829 cumulative IPC: 1.6723 (Simulation time: 0 hr 9 min 35 sec) 
Heartbeat CPU 0 instructions: 100000002 cycles: 45049265 heartbeat IPC: 1.69645 cumulative IPC: 1.67707 (Simulation time: 0 hr 10 min 20 sec) 
Finished CPU 0 instructions: 50000002 cycles: 29813851 cumulative IPC: 1.67707 (Simulation time: 0 hr 10 min 20 sec) 

ChampSim completed all CPUs

Region of Interest Statistics

CPU 0 cumulative IPC: 1.67707 instructions: 50000002 cycles: 29813851
L1D TOTAL     ACCESS:   12958370  HIT:   12797296  MISS:     161074
L1D LOAD      ACCESS:    5090942  HIT:    5035732  MISS:      55210
L1D RFO       ACCESS:    2883063  HIT:    2848795  MISS:      34268
L1D PREFETCH  ACCESS:    4984365  HIT:    4912769  MISS:      71596
L1D WRITEBACK ACCESS:          0  HIT:          0  MISS:          0
L1D PREFETCH  REQUESTED:    5107461  ISSUED:    5040657  USEFUL:      25713  USELESS:      45692
L1D AVERAGE MISS LATENCY: 39.2467 cycles
L1I TOTAL     ACCESS:    8606955  HIT:    8223363  MISS:     383592
L1I LOAD      ACCESS:    8037865  HIT:    8034509  MISS:       3356
L1I RFO       ACCESS:          0  HIT:          0  MISS:          0
L1I PREFETCH  ACCESS:     569090  HIT:     188854  MISS:     380236
L1I WRITEBACK ACCESS:          0  HIT:          0  MISS:          0
L1I PREFETCH  REQUESTED:     577487  ISSUED:     577487  USEFUL:     297091  USELESS:      83173
L1I AVERAGE MISS LATENCY: 14.8394 cycles
L2C TOTAL     ACCESS:     776992  HIT:     737603  MISS:      39389
L2C LOAD      ACCESS:      57220  HIT:      51673  MISS:       5547
L2C RFO       ACCESS:      34027  HIT:      21968  MISS:      12059
L2C PREFETCH  ACCESS:     642690  HIT:     620990  MISS:      21700
L2C WRITEBACK ACCESS:      43055  HIT:      42972  MISS:         83
L2C PREFETCH  REQUESTED:     620664  ISSUED:     618649  USEFUL:       9007  USELESS:      12880
L2C AVERAGE MISS LATENCY: 100.269 cycles
LLC TOTAL     ACCESS:     137173  HIT:     108125  MISS:      29048
LLC LOAD      ACCESS:       5546  HIT:       3438  MISS:       2108
LLC RFO       ACCESS:      12059  HIT:        464  MISS:      11595
LLC PREFETCH  ACCESS:     105968  HIT:      90718  MISS:      15250
LLC WRITEBACK ACCESS:      13600  HIT:      13505  MISS:         95
LLC PREFETCH  REQUESTED:          0  ISSUED:          0  USEFUL:       1787  USELESS:      14130
LLC AVERAGE MISS LATENCY: 161.569 cycles
Major fault: 0 Minor fault: 1284
I-Shadow cache 408 bytes
Touched + WorthPF tables 6144 bytes 
MMA filter 174 bytes 
FNL filter 272 bytes 
TOTAL PREFETCHER STORAGE SIZE: 25174 bytes
CPU 0 L1I next line prefetcher final stats
CPU 0 L1D next line prefetcher final stats

DRAM Statistics
 CHANNEL 0
 RQ ROW_BUFFER_HIT:      10019  ROW_BUFFER_MISS:      18934
 DBUS_CONGESTED:      12614
 WQ ROW_BUFFER_HIT:       2976  ROW_BUFFER_MISS:       9612  FULL:          0

 AVG_CONGESTED_CYCLE: 6

CPU 0 Branch Prediction Accuracy: 97.1633% MPKI: 1.73704 Average ROB Occupancy at Mispredict: 42.9569

Branch types
NOT_BRANCH: 46937921 93.8758%
BRANCH_DIRECT_JUMP: 170816 0.341632%
BRANCH_INDIRECT: 0 0%
BRANCH_CONDITIONAL: 2532774 5.06555%
BRANCH_DIRECT_CALL: 114227 0.228454%
BRANCH_INDIRECT_CALL: 64863 0.129726%
BRANCH_RETURN: 179089 0.358178%
BRANCH_OTHER: 0 0%

