Initialize SIGNATURE TABLE
ST_SET: 1
ST_WAY: 256
ST_TAG_BIT: 16
ST_TAG_MASK: ffff

Initialize PATTERN TABLE
PT_SET: 512
PT_WAY: 4
SIG_DELTA_BIT: 7
C_SIG_BIT: 4
C_DELTA_BIT: 4

Initialize PREFETCH FILTER
FILTER_SET: 1024

*** ChampSim Multicore Out-of-Order Simulator ***

Warmup Instructions: 50000000
Simulation Instructions: 50000000
Number of CPUs: 1
LLC sets: 2048
LLC ways: 16
Off-chip DRAM Size: 4096 MB Channels: 1 Width: 64-bit Data Rate: 3200 MT/s

CPU 0 runs /Users/brandon/Documents/CoursesWi22/CSE240C/Homework1/ChampSim/ipc1_public/client_002.champsimtrace.xz
L1I D-JOLT instruction prefetcher has been constructed!
CPU 0 L1D next line prefetcher
Heartbeat CPU 0 instructions: 10000000 cycles: 3404714 heartbeat IPC: 2.9371 cumulative IPC: 2.9371 (Simulation time: 0 hr 1 min 34 sec) 
Heartbeat CPU 0 instructions: 20000002 cycles: 6859961 heartbeat IPC: 2.89415 cumulative IPC: 2.91547 (Simulation time: 0 hr 3 min 24 sec) 
Heartbeat CPU 0 instructions: 30000001 cycles: 10292465 heartbeat IPC: 2.91332 cumulative IPC: 2.91475 (Simulation time: 0 hr 5 min 12 sec) 
Heartbeat CPU 0 instructions: 40000002 cycles: 13724790 heartbeat IPC: 2.91348 cumulative IPC: 2.91443 (Simulation time: 0 hr 7 min 6 sec) 
Heartbeat CPU 0 instructions: 50000002 cycles: 17165147 heartbeat IPC: 2.90668 cumulative IPC: 2.91288 (Simulation time: 0 hr 8 min 58 sec) 

Warmup complete CPU 0 instructions: 50000002 cycles: 17165147 (Simulation time: 0 hr 8 min 58 sec) 

Heartbeat CPU 0 instructions: 60000002 cycles: 23087208 heartbeat IPC: 1.6886 cumulative IPC: 1.6886 (Simulation time: 0 hr 10 min 37 sec) 
Heartbeat CPU 0 instructions: 70000001 cycles: 29049732 heartbeat IPC: 1.67714 cumulative IPC: 1.68285 (Simulation time: 0 hr 12 min 20 sec) 
Heartbeat CPU 0 instructions: 80000003 cycles: 34908616 heartbeat IPC: 1.70681 cumulative IPC: 1.69076 (Simulation time: 0 hr 13 min 59 sec) 
Heartbeat CPU 0 instructions: 90000000 cycles: 41325748 heartbeat IPC: 1.55833 cumulative IPC: 1.65559 (Simulation time: 0 hr 15 min 32 sec) 
Heartbeat CPU 0 instructions: 100000003 cycles: 47222911 heartbeat IPC: 1.69573 cumulative IPC: 1.66346 (Simulation time: 0 hr 16 min 56 sec) 
Finished CPU 0 instructions: 50000001 cycles: 30057764 cumulative IPC: 1.66346 (Simulation time: 0 hr 16 min 56 sec) 

ChampSim completed all CPUs

Region of Interest Statistics

CPU 0 cumulative IPC: 1.66346 instructions: 50000001 cycles: 30057764
L1D TOTAL     ACCESS:   19054883  HIT:   18715678  MISS:     339205
L1D LOAD      ACCESS:    6449215  HIT:    6331945  MISS:     117270
L1D RFO       ACCESS:    6416824  HIT:    6326858  MISS:      89966
L1D PREFETCH  ACCESS:    6188844  HIT:    6056875  MISS:     131969
L1D WRITEBACK ACCESS:          0  HIT:          0  MISS:          0
L1D PREFETCH  REQUESTED:    6459409  ISSUED:    6258619  USEFUL:      53215  USELESS:      78896
L1D AVERAGE MISS LATENCY: 49.4123 cycles
L1I TOTAL     ACCESS:   16928216  HIT:   15233945  MISS:    1694271
L1I LOAD      ACCESS:    9557441  HIT:    9526551  MISS:      30890
L1I RFO       ACCESS:          0  HIT:          0  MISS:          0
L1I PREFETCH  ACCESS:    7370775  HIT:    5707394  MISS:    1663381
L1I WRITEBACK ACCESS:          0  HIT:          0  MISS:          0
L1I PREFETCH  REQUESTED:    7797035  ISSUED:    7639921  USEFUL:     929766  USELESS:     733609
L1I AVERAGE MISS LATENCY: 16.6375 cycles
L2C TOTAL     ACCESS:    2862924  HIT:    2607538  MISS:     255386
L2C LOAD      ACCESS:     125866  HIT:      86172  MISS:      39694
L2C RFO       ACCESS:      88843  HIT:      22160  MISS:      66683
L2C PREFETCH  ACCESS:    2522708  HIT:    2374126  MISS:     148582
L2C WRITEBACK ACCESS:     125507  HIT:     125080  MISS:        427
L2C PREFETCH  REQUESTED:    1623268  ISSUED:    1622476  USEFUL:       8900  USELESS:     138977
L2C AVERAGE MISS LATENCY: 62.7017 cycles
LLC TOTAL     ACCESS:     716228  HIT:     646883  MISS:      69345
LLC LOAD      ACCESS:      39691  HIT:      33680  MISS:       6011
LLC RFO       ACCESS:      66677  HIT:      36933  MISS:      29744
LLC PREFETCH  ACCESS:     524749  HIT:     491430  MISS:      33319
LLC WRITEBACK ACCESS:      85111  HIT:      84840  MISS:        271
LLC PREFETCH  REQUESTED:          0  ISSUED:          0  USEFUL:       5709  USELESS:      26829
LLC AVERAGE MISS LATENCY: 177.729 cycles
Major fault: 0 Minor fault: 3093
CPU 0 L1D next line prefetcher final stats

DRAM Statistics
 CHANNEL 0
 RQ ROW_BUFFER_HIT:      22858  ROW_BUFFER_MISS:      46214
 DBUS_CONGESTED:      42759
 WQ ROW_BUFFER_HIT:       8876  ROW_BUFFER_MISS:      28134  FULL:          0

 AVG_CONGESTED_CYCLE: 6

CPU 0 Branch Prediction Accuracy: 99.2117% MPKI: 1.49752 Average ROB Occupancy at Mispredict: 120.885

Branch types
NOT_BRANCH: 40501616 81.0032%
BRANCH_DIRECT_JUMP: 517397 1.03479%
BRANCH_INDIRECT: 112348 0.224696%
BRANCH_CONDITIONAL: 6698737 13.3975%
BRANCH_DIRECT_CALL: 960974 1.92195%
BRANCH_INDIRECT_CALL: 123707 0.247414%
BRANCH_RETURN: 1084929 2.16986%
BRANCH_OTHER: 0 0%

