Initialize SIGNATURE TABLE
ST_SET: 1
ST_WAY: 256
ST_TAG_BIT: 16
ST_TAG_MASK: ffff

Initialize PATTERN TABLE
PT_SET: 512
PT_WAY: 4
SIG_DELTA_BIT: 7
C_SIG_BIT: 4
C_DELTA_BIT: 4

Initialize PREFETCH FILTER
FILTER_SET: 1024

*** ChampSim Multicore Out-of-Order Simulator ***

Warmup Instructions: 50000000
Simulation Instructions: 50000000
Number of CPUs: 1
LLC sets: 2048
LLC ways: 16
Off-chip DRAM Size: 4096 MB Channels: 1 Width: 64-bit Data Rate: 3200 MT/s

CPU 0 runs /Users/brandon/Documents/CoursesWi22/CSE240C/Homework1/ChampSim/ipc1_public/client_007.champsimtrace.xz
L1I D-JOLT instruction prefetcher has been constructed!
CPU 0 L1D next line prefetcher
Heartbeat CPU 0 instructions: 10000001 cycles: 3642230 heartbeat IPC: 2.74557 cumulative IPC: 2.74557 (Simulation time: 0 hr 1 min 31 sec) 
Heartbeat CPU 0 instructions: 20000003 cycles: 7034427 heartbeat IPC: 2.94794 cumulative IPC: 2.84316 (Simulation time: 0 hr 3 min 12 sec) 
Heartbeat CPU 0 instructions: 30000000 cycles: 10906890 heartbeat IPC: 2.58233 cumulative IPC: 2.75056 (Simulation time: 0 hr 5 min 8 sec) 
Heartbeat CPU 0 instructions: 40000003 cycles: 15066961 heartbeat IPC: 2.40381 cumulative IPC: 2.65482 (Simulation time: 0 hr 7 min 10 sec) 
Heartbeat CPU 0 instructions: 50000002 cycles: 18472244 heartbeat IPC: 2.93661 cumulative IPC: 2.70676 (Simulation time: 0 hr 8 min 57 sec) 

Warmup complete CPU 0 instructions: 50000002 cycles: 18472244 (Simulation time: 0 hr 8 min 57 sec) 

Heartbeat CPU 0 instructions: 60000003 cycles: 25356828 heartbeat IPC: 1.45252 cumulative IPC: 1.45252 (Simulation time: 0 hr 10 min 48 sec) 
Heartbeat CPU 0 instructions: 70000003 cycles: 34225439 heartbeat IPC: 1.12757 cumulative IPC: 1.26958 (Simulation time: 0 hr 12 min 50 sec) 
Heartbeat CPU 0 instructions: 80000002 cycles: 39552151 heartbeat IPC: 1.87733 cumulative IPC: 1.42316 (Simulation time: 0 hr 14 min 6 sec) 
Heartbeat CPU 0 instructions: 90000002 cycles: 47163562 heartbeat IPC: 1.31382 cumulative IPC: 1.39415 (Simulation time: 0 hr 15 min 48 sec) 
Heartbeat CPU 0 instructions: 100000002 cycles: 56097490 heartbeat IPC: 1.11933 cumulative IPC: 1.32889 (Simulation time: 0 hr 17 min 5 sec) 
Finished CPU 0 instructions: 50000000 cycles: 37625246 cumulative IPC: 1.32889 (Simulation time: 0 hr 17 min 5 sec) 

ChampSim completed all CPUs

Region of Interest Statistics

CPU 0 cumulative IPC: 1.32889 instructions: 50000000 cycles: 37625246
L1D TOTAL     ACCESS:   21191880  HIT:   20022728  MISS:    1169152
L1D LOAD      ACCESS:    8366693  HIT:    7827395  MISS:     539298
L1D RFO       ACCESS:    4868588  HIT:    4777512  MISS:      91076
L1D PREFETCH  ACCESS:    7956599  HIT:    7417821  MISS:     538778
L1D WRITEBACK ACCESS:          0  HIT:          0  MISS:          0
L1D PREFETCH  REQUESTED:    8418653  ISSUED:    8174955  USEFUL:     158254  USELESS:     380538
L1D AVERAGE MISS LATENCY: 34.5355 cycles
L1I TOTAL     ACCESS:   13203884  HIT:   12024760  MISS:    1179124
L1I LOAD      ACCESS:    9120619  HIT:    9061383  MISS:      59236
L1I RFO       ACCESS:          0  HIT:          0  MISS:          0
L1I PREFETCH  ACCESS:    4083265  HIT:    2963377  MISS:    1119888
L1I WRITEBACK ACCESS:          0  HIT:          0  MISS:          0
L1I PREFETCH  REQUESTED:    4245870  ISSUED:    4192114  USEFUL:     844695  USELESS:     275251
L1I AVERAGE MISS LATENCY: 16.4475 cycles
L2C TOTAL     ACCESS:    3510188  HIT:    3303560  MISS:     206628
L2C LOAD      ACCESS:     569070  HIT:     499047  MISS:      70023
L2C RFO       ACCESS:      89524  HIT:      47833  MISS:      41691
L2C PREFETCH  ACCESS:    2523918  HIT:    2429244  MISS:      94674
L2C WRITEBACK ACCESS:     327676  HIT:     327436  MISS:        240
L2C PREFETCH  REQUESTED:    2589267  ISSUED:    2581275  USEFUL:       9668  USELESS:      85009
L2C AVERAGE MISS LATENCY: 125.125 cycles
LLC TOTAL     ACCESS:     962125  HIT:     793612  MISS:     168513
LLC LOAD      ACCESS:      69930  HIT:      34670  MISS:      35260
LLC RFO       ACCESS:      41691  HIT:       7221  MISS:      34470
LLC PREFETCH  ACCESS:     775974  HIT:     677489  MISS:      98485
LLC WRITEBACK ACCESS:      74530  HIT:      74232  MISS:        298
LLC PREFETCH  REQUESTED:          0  ISSUED:          0  USEFUL:      18528  USELESS:      81209
LLC AVERAGE MISS LATENCY: 182.465 cycles
Major fault: 0 Minor fault: 4411
CPU 0 L1D next line prefetcher final stats

DRAM Statistics
 CHANNEL 0
 RQ ROW_BUFFER_HIT:      35201  ROW_BUFFER_MISS:     133012
 DBUS_CONGESTED:      93861
 WQ ROW_BUFFER_HIT:      13150  ROW_BUFFER_MISS:      44664  FULL:          0

 AVG_CONGESTED_CYCLE: 5

CPU 0 Branch Prediction Accuracy: 98.8607% MPKI: 1.8623 Average ROB Occupancy at Mispredict: 113.422

Branch types
NOT_BRANCH: 41826773 83.6535%
BRANCH_DIRECT_JUMP: 735330 1.47066%
BRANCH_INDIRECT: 269194 0.538388%
BRANCH_CONDITIONAL: 5957947 11.9159%
BRANCH_DIRECT_CALL: 368758 0.737516%
BRANCH_INDIRECT_CALL: 226975 0.45395%
BRANCH_RETURN: 614696 1.22939%
BRANCH_OTHER: 0 0%

