Initialize SIGNATURE TABLE
ST_SET: 1
ST_WAY: 256
ST_TAG_BIT: 16
ST_TAG_MASK: ffff

Initialize PATTERN TABLE
PT_SET: 512
PT_WAY: 4
SIG_DELTA_BIT: 7
C_SIG_BIT: 4
C_DELTA_BIT: 4

Initialize PREFETCH FILTER
FILTER_SET: 1024

*** ChampSim Multicore Out-of-Order Simulator ***

Warmup Instructions: 50000000
Simulation Instructions: 50000000
Number of CPUs: 1
LLC sets: 2048
LLC ways: 16
Off-chip DRAM Size: 4096 MB Channels: 1 Width: 64-bit Data Rate: 3200 MT/s

CPU 0 runs /Users/brandon/Documents/CoursesWi22/CSE240C/Homework1/ChampSim/ipc1_public/client_008.champsimtrace.xz
L1I D-JOLT instruction prefetcher has been constructed!
CPU 0 L1D next line prefetcher
Heartbeat CPU 0 instructions: 10000001 cycles: 3754918 heartbeat IPC: 2.66317 cumulative IPC: 2.66317 (Simulation time: 0 hr 1 min 45 sec) 
Heartbeat CPU 0 instructions: 20000001 cycles: 7531631 heartbeat IPC: 2.64781 cumulative IPC: 2.65547 (Simulation time: 0 hr 3 min 47 sec) 
Heartbeat CPU 0 instructions: 30000000 cycles: 11259661 heartbeat IPC: 2.68238 cumulative IPC: 2.66438 (Simulation time: 0 hr 5 min 50 sec) 
Heartbeat CPU 0 instructions: 40000002 cycles: 15056132 heartbeat IPC: 2.63403 cumulative IPC: 2.65672 (Simulation time: 0 hr 7 min 59 sec) 
Heartbeat CPU 0 instructions: 50000003 cycles: 18849988 heartbeat IPC: 2.63584 cumulative IPC: 2.65252 (Simulation time: 0 hr 10 min 4 sec) 

Warmup complete CPU 0 instructions: 50000003 cycles: 18849988 (Simulation time: 0 hr 10 min 4 sec) 

Heartbeat CPU 0 instructions: 60000000 cycles: 26975756 heartbeat IPC: 1.23065 cumulative IPC: 1.23065 (Simulation time: 0 hr 12 min 13 sec) 
Heartbeat CPU 0 instructions: 70000000 cycles: 34911699 heartbeat IPC: 1.26009 cumulative IPC: 1.2452 (Simulation time: 0 hr 14 min 25 sec) 
Heartbeat CPU 0 instructions: 80000000 cycles: 44003433 heartbeat IPC: 1.0999 cumulative IPC: 1.19268 (Simulation time: 0 hr 16 min 3 sec) 
Heartbeat CPU 0 instructions: 90000001 cycles: 51388907 heartbeat IPC: 1.35401 cumulative IPC: 1.2293 (Simulation time: 0 hr 17 min 14 sec) 
Heartbeat CPU 0 instructions: 100000001 cycles: 59425390 heartbeat IPC: 1.24433 cumulative IPC: 1.23227 (Simulation time: 0 hr 17 min 59 sec) 
Finished CPU 0 instructions: 50000002 cycles: 40575403 cumulative IPC: 1.23227 (Simulation time: 0 hr 17 min 59 sec) 

ChampSim completed all CPUs

Region of Interest Statistics

CPU 0 cumulative IPC: 1.23227 instructions: 50000002 cycles: 40575403
L1D TOTAL     ACCESS:   20470979  HIT:   18842569  MISS:    1628410
L1D LOAD      ACCESS:    8057823  HIT:    7257960  MISS:     799863
L1D RFO       ACCESS:    4813950  HIT:    4704417  MISS:     109533
L1D PREFETCH  ACCESS:    7599206  HIT:    6880192  MISS:     719014
L1D WRITEBACK ACCESS:          0  HIT:          0  MISS:          0
L1D PREFETCH  REQUESTED:    8127477  ISSUED:    7958901  USEFUL:     199262  USELESS:     519756
L1D AVERAGE MISS LATENCY: 33.2039 cycles
L1I TOTAL     ACCESS:   15854690  HIT:   14208939  MISS:    1645751
L1I LOAD      ACCESS:    9776413  HIT:    9735532  MISS:      40881
L1I RFO       ACCESS:          0  HIT:          0  MISS:          0
L1I PREFETCH  ACCESS:    6078277  HIT:    4473407  MISS:    1604870
L1I WRITEBACK ACCESS:          0  HIT:          0  MISS:          0
L1I PREFETCH  REQUESTED:    6640352  ISSUED:    6569203  USEFUL:     860875  USELESS:     744110
L1I AVERAGE MISS LATENCY: 17.1485 cycles
L2C TOTAL     ACCESS:    4533557  HIT:    4057479  MISS:     476078
L2C LOAD      ACCESS:     787055  HIT:     617436  MISS:     169619
L2C RFO       ACCESS:     104331  HIT:      18122  MISS:      86209
L2C PREFETCH  ACCESS:    3460171  HIT:    3240510  MISS:     219661
L2C WRITEBACK ACCESS:     182000  HIT:     181411  MISS:        589
L2C PREFETCH  REQUESTED:    3197222  ISSUED:    3176115  USEFUL:      19717  USELESS:     202283
L2C AVERAGE MISS LATENCY: 75.0847 cycles
LLC TOTAL     ACCESS:    1546164  HIT:    1360878  MISS:     185286
LLC LOAD      ACCESS:     169521  HIT:     147530  MISS:      21991
LLC RFO       ACCESS:      86206  HIT:      15679  MISS:      70527
LLC PREFETCH  ACCESS:    1154021  HIT:    1061585  MISS:      92436
LLC WRITEBACK ACCESS:     136416  HIT:     136084  MISS:        332
LLC PREFETCH  REQUESTED:          0  ISSUED:          0  USEFUL:      24182  USELESS:      76842
LLC AVERAGE MISS LATENCY: 169.362 cycles
Major fault: 0 Minor fault: 5306
CPU 0 L1D next line prefetcher final stats

DRAM Statistics
 CHANNEL 0
 RQ ROW_BUFFER_HIT:      51357  ROW_BUFFER_MISS:     133583
 DBUS_CONGESTED:      96321
 WQ ROW_BUFFER_HIT:      23867  ROW_BUFFER_MISS:      65810  FULL:          0

 AVG_CONGESTED_CYCLE: 6

CPU 0 Branch Prediction Accuracy: 98.6482% MPKI: 3.1551 Average ROB Occupancy at Mispredict: 97.6103

Branch types
NOT_BRANCH: 38329598 76.6592%
BRANCH_DIRECT_JUMP: 510116 1.02023%
BRANCH_INDIRECT: 225730 0.45146%
BRANCH_CONDITIONAL: 8366762 16.7335%
BRANCH_DIRECT_CALL: 600748 1.2015%
BRANCH_INDIRECT_CALL: 682990 1.36598%
BRANCH_RETURN: 1283974 2.56795%
BRANCH_OTHER: 0 0%

