Initialize SIGNATURE TABLE
ST_SET: 1
ST_WAY: 256
ST_TAG_BIT: 16
ST_TAG_MASK: ffff

Initialize PATTERN TABLE
PT_SET: 512
PT_WAY: 4
SIG_DELTA_BIT: 7
C_SIG_BIT: 4
C_DELTA_BIT: 4

Initialize PREFETCH FILTER
FILTER_SET: 1024

*** ChampSim Multicore Out-of-Order Simulator ***

Warmup Instructions: 50000000
Simulation Instructions: 50000000
Number of CPUs: 1
LLC sets: 2048
LLC ways: 16
Off-chip DRAM Size: 4096 MB Channels: 1 Width: 64-bit Data Rate: 3200 MT/s

CPU 0 runs /Users/brandon/Documents/CoursesWi22/CSE240C/Homework1/ChampSim/ipc1_public/server_009.champsimtrace.xz
L1I D-JOLT instruction prefetcher has been constructed!
CPU 0 L1D next line prefetcher
Heartbeat CPU 0 instructions: 10000003 cycles: 3196495 heartbeat IPC: 3.12843 cumulative IPC: 3.12843 (Simulation time: 0 hr 1 min 34 sec) 
Heartbeat CPU 0 instructions: 20000001 cycles: 6386184 heartbeat IPC: 3.1351 cumulative IPC: 3.13176 (Simulation time: 0 hr 3 min 24 sec) 
Heartbeat CPU 0 instructions: 30000002 cycles: 9590740 heartbeat IPC: 3.12056 cumulative IPC: 3.12802 (Simulation time: 0 hr 5 min 11 sec) 
Heartbeat CPU 0 instructions: 40000003 cycles: 12791633 heartbeat IPC: 3.12413 cumulative IPC: 3.12704 (Simulation time: 0 hr 7 min 5 sec) 
Heartbeat CPU 0 instructions: 50000000 cycles: 16049239 heartbeat IPC: 3.06974 cumulative IPC: 3.11541 (Simulation time: 0 hr 8 min 58 sec) 

Warmup complete CPU 0 instructions: 50000004 cycles: 16049240 (Simulation time: 0 hr 8 min 58 sec) 

Heartbeat CPU 0 instructions: 60000002 cycles: 31682652 heartbeat IPC: 0.639656 cumulative IPC: 0.639656 (Simulation time: 0 hr 11 min 19 sec) 
Heartbeat CPU 0 instructions: 70000003 cycles: 52715270 heartbeat IPC: 0.475452 cumulative IPC: 0.545464 (Simulation time: 0 hr 14 min 8 sec) 
Heartbeat CPU 0 instructions: 80000000 cycles: 59879641 heartbeat IPC: 1.3958 cumulative IPC: 0.684456 (Simulation time: 0 hr 15 min 43 sec) 
Heartbeat CPU 0 instructions: 90000001 cycles: 67164475 heartbeat IPC: 1.37271 cumulative IPC: 0.782546 (Simulation time: 0 hr 17 min 5 sec) 
Heartbeat CPU 0 instructions: 100000003 cycles: 74345394 heartbeat IPC: 1.39258 cumulative IPC: 0.857689 (Simulation time: 0 hr 17 min 52 sec) 
Finished CPU 0 instructions: 50000003 cycles: 58296155 cumulative IPC: 0.85769 (Simulation time: 0 hr 17 min 52 sec) 

ChampSim completed all CPUs

Region of Interest Statistics

CPU 0 cumulative IPC: 0.85769 instructions: 50000003 cycles: 58296155
L1D TOTAL     ACCESS:   21605559  HIT:   17026091  MISS:    4579468
L1D LOAD      ACCESS:    8619872  HIT:    6339482  MISS:    2280390
L1D RFO       ACCESS:    4580097  HIT:    4475665  MISS:     104432
L1D PREFETCH  ACCESS:    8405590  HIT:    6210944  MISS:    2194646
L1D WRITEBACK ACCESS:          0  HIT:          0  MISS:          0
L1D PREFETCH  REQUESTED:    8652011  ISSUED:    8555115  USEFUL:     106180  USELESS:    2088465
L1D AVERAGE MISS LATENCY: 20.4859 cycles
L1I TOTAL     ACCESS:   17698306  HIT:   16152387  MISS:    1545919
L1I LOAD      ACCESS:   10777895  HIT:   10716926  MISS:      60969
L1I RFO       ACCESS:          0  HIT:          0  MISS:          0
L1I PREFETCH  ACCESS:    6920411  HIT:    5435461  MISS:    1484950
L1I WRITEBACK ACCESS:          0  HIT:          0  MISS:          0
L1I PREFETCH  REQUESTED:    7678699  ISSUED:    7279837  USEFUL:    1085877  USELESS:     399047
L1I AVERAGE MISS LATENCY: 31.7008 cycles
L2C TOTAL     ACCESS:    7795389  HIT:    6731986  MISS:    1063403
L2C LOAD      ACCESS:    2292879  HIT:    2072058  MISS:     220821
L2C RFO       ACCESS:     103471  HIT:      63098  MISS:      40373
L2C PREFETCH  ACCESS:    5142184  HIT:    4341288  MISS:     800896
L2C WRITEBACK ACCESS:     256855  HIT:     255542  MISS:       1313
L2C PREFETCH  REQUESTED:    6424866  ISSUED:    6421966  USEFUL:      20131  USELESS:     779836
L2C AVERAGE MISS LATENCY: 47.8065 cycles
LLC TOTAL     ACCESS:    2352548  HIT:    2209269  MISS:     143279
LLC LOAD      ACCESS:     220585  HIT:     199527  MISS:      21058
LLC RFO       ACCESS:      40368  HIT:      31295  MISS:       9073
LLC PREFETCH  ACCESS:    1951632  HIT:    1838682  MISS:     112950
LLC WRITEBACK ACCESS:     139963  HIT:     139765  MISS:        198
LLC PREFETCH  REQUESTED:          0  ISSUED:          0  USEFUL:      10936  USELESS:      99809
LLC AVERAGE MISS LATENCY: 175.666 cycles
Major fault: 0 Minor fault: 6364
CPU 0 L1D next line prefetcher final stats

DRAM Statistics
 CHANNEL 0
 RQ ROW_BUFFER_HIT:      26336  ROW_BUFFER_MISS:     116722
 DBUS_CONGESTED:      60464
 WQ ROW_BUFFER_HIT:       9196  ROW_BUFFER_MISS:      38196  FULL:          0

 AVG_CONGESTED_CYCLE: 5

CPU 0 Branch Prediction Accuracy: 99.4713% MPKI: 1.11484 Average ROB Occupancy at Mispredict: 120.745

Branch types
NOT_BRANCH: 39456615 78.9132%
BRANCH_DIRECT_JUMP: 445350 0.8907%
BRANCH_INDIRECT: 131149 0.262298%
BRANCH_CONDITIONAL: 8130196 16.2604%
BRANCH_DIRECT_CALL: 732485 1.46497%
BRANCH_INDIRECT_CALL: 172369 0.344738%
BRANCH_RETURN: 931558 1.86312%
BRANCH_OTHER: 0 0%

