Initialize SIGNATURE TABLE
ST_SET: 1
ST_WAY: 256
ST_TAG_BIT: 16
ST_TAG_MASK: ffff

Initialize PATTERN TABLE
PT_SET: 512
PT_WAY: 4
SIG_DELTA_BIT: 7
C_SIG_BIT: 4
C_DELTA_BIT: 4

Initialize PREFETCH FILTER
FILTER_SET: 1024

*** ChampSim Multicore Out-of-Order Simulator ***

Warmup Instructions: 50000000
Simulation Instructions: 50000000
Number of CPUs: 1
LLC sets: 2048
LLC ways: 16
Off-chip DRAM Size: 4096 MB Channels: 1 Width: 64-bit Data Rate: 3200 MT/s

CPU 0 runs /Users/brandon/Documents/CoursesWi22/CSE240C/Homework1/ChampSim/ipc1_public/server_013.champsimtrace.xz
L1I D-JOLT instruction prefetcher has been constructed!
CPU 0 L1D next line prefetcher
Heartbeat CPU 0 instructions: 10000000 cycles: 3211001 heartbeat IPC: 3.11429 cumulative IPC: 3.11429 (Simulation time: 0 hr 1 min 34 sec) 
Heartbeat CPU 0 instructions: 20000001 cycles: 6411013 heartbeat IPC: 3.12499 cumulative IPC: 3.11963 (Simulation time: 0 hr 3 min 23 sec) 
Heartbeat CPU 0 instructions: 30000002 cycles: 9614997 heartbeat IPC: 3.12111 cumulative IPC: 3.12013 (Simulation time: 0 hr 5 min 10 sec) 
Heartbeat CPU 0 instructions: 40000002 cycles: 12814622 heartbeat IPC: 3.12537 cumulative IPC: 3.12143 (Simulation time: 0 hr 7 min 3 sec) 
Heartbeat CPU 0 instructions: 50000000 cycles: 16014276 heartbeat IPC: 3.12534 cumulative IPC: 3.12221 (Simulation time: 0 hr 8 min 55 sec) 

Warmup complete CPU 0 instructions: 50000004 cycles: 16014277 (Simulation time: 0 hr 8 min 55 sec) 

Heartbeat CPU 0 instructions: 60000002 cycles: 23563199 heartbeat IPC: 1.32469 cumulative IPC: 1.32469 (Simulation time: 0 hr 10 min 36 sec) 
Heartbeat CPU 0 instructions: 70000002 cycles: 31260742 heartbeat IPC: 1.29912 cumulative IPC: 1.31178 (Simulation time: 0 hr 12 min 22 sec) 
Heartbeat CPU 0 instructions: 80000003 cycles: 38438621 heartbeat IPC: 1.39317 cumulative IPC: 1.33783 (Simulation time: 0 hr 14 min 0 sec) 
Heartbeat CPU 0 instructions: 90000003 cycles: 45774680 heartbeat IPC: 1.36313 cumulative IPC: 1.34407 (Simulation time: 0 hr 15 min 38 sec) 
Heartbeat CPU 0 instructions: 100000003 cycles: 53132191 heartbeat IPC: 1.35916 cumulative IPC: 1.34706 (Simulation time: 0 hr 17 min 2 sec) 
Finished CPU 0 instructions: 50000003 cycles: 37117915 cumulative IPC: 1.34706 (Simulation time: 0 hr 17 min 2 sec) 

ChampSim completed all CPUs

Region of Interest Statistics

CPU 0 cumulative IPC: 1.34706 instructions: 50000003 cycles: 37117915
L1D TOTAL     ACCESS:   17316696  HIT:   16250248  MISS:    1066448
L1D LOAD      ACCESS:    6314883  HIT:    5813870  MISS:     501013
L1D RFO       ACCESS:    4927655  HIT:    4847499  MISS:      80156
L1D PREFETCH  ACCESS:    6074158  HIT:    5588879  MISS:     485279
L1D WRITEBACK ACCESS:          0  HIT:          0  MISS:          0
L1D PREFETCH  REQUESTED:    6349593  ISSUED:    6255396  USEFUL:     133738  USELESS:     351550
L1D AVERAGE MISS LATENCY: 42.3305 cycles
L1I TOTAL     ACCESS:   17271722  HIT:   15080603  MISS:    2191119
L1I LOAD      ACCESS:    8732450  HIT:    8645426  MISS:      87024
L1I RFO       ACCESS:          0  HIT:          0  MISS:          0
L1I PREFETCH  ACCESS:    8539272  HIT:    6435177  MISS:    2104095
L1I WRITEBACK ACCESS:          0  HIT:          0  MISS:          0
L1I PREFETCH  REQUESTED:    9455842  ISSUED:    8942004  USEFUL:    1482249  USELESS:     621750
L1I AVERAGE MISS LATENCY: 30.3266 cycles
L2C TOTAL     ACCESS:    4280156  HIT:    2879925  MISS:    1400231
L2C LOAD      ACCESS:     523969  HIT:     238728  MISS:     285241
L2C RFO       ACCESS:      78864  HIT:      30835  MISS:      48029
L2C PREFETCH  ACCESS:    3401527  HIT:    2336501  MISS:    1065026
L2C WRITEBACK ACCESS:     275796  HIT:     273861  MISS:       1935
L2C PREFETCH  REQUESTED:    3275590  ISSUED:    3271950  USEFUL:      26044  USELESS:    1039136
L2C AVERAGE MISS LATENCY: 45.9436 cycles
LLC TOTAL     ACCESS:    2562343  HIT:    2398280  MISS:     164063
LLC LOAD      ACCESS:     285124  HIT:     262289  MISS:      22835
LLC RFO       ACCESS:      48025  HIT:      38108  MISS:       9917
LLC PREFETCH  ACCESS:    2056594  HIT:    1925496  MISS:     131098
LLC WRITEBACK ACCESS:     172600  HIT:     172387  MISS:        213
LLC PREFETCH  REQUESTED:          0  ISSUED:          0  USEFUL:      11857  USELESS:     118526
LLC AVERAGE MISS LATENCY: 174.541 cycles
Major fault: 0 Minor fault: 6209
CPU 0 L1D next line prefetcher final stats

DRAM Statistics
 CHANNEL 0
 RQ ROW_BUFFER_HIT:      27135  ROW_BUFFER_MISS:     136700
 DBUS_CONGESTED:      69500
 WQ ROW_BUFFER_HIT:      11871  ROW_BUFFER_MISS:      50516  FULL:          0

 AVG_CONGESTED_CYCLE: 5

CPU 0 Branch Prediction Accuracy: 99.4114% MPKI: 1.0933 Average ROB Occupancy at Mispredict: 125.28

Branch types
NOT_BRANCH: 40713258 81.4265%
BRANCH_DIRECT_JUMP: 463701 0.927402%
BRANCH_INDIRECT: 146544 0.293088%
BRANCH_CONDITIONAL: 6981953 13.9639%
BRANCH_DIRECT_CALL: 665005 1.33001%
BRANCH_INDIRECT_CALL: 165152 0.330304%
BRANCH_RETURN: 864314 1.72863%
BRANCH_OTHER: 0 0%

