Initialize SIGNATURE TABLE
ST_SET: 1
ST_WAY: 256
ST_TAG_BIT: 16
ST_TAG_MASK: ffff

Initialize PATTERN TABLE
PT_SET: 512
PT_WAY: 4
SIG_DELTA_BIT: 7
C_SIG_BIT: 4
C_DELTA_BIT: 4

Initialize PREFETCH FILTER
FILTER_SET: 1024

*** ChampSim Multicore Out-of-Order Simulator ***

Warmup Instructions: 50000000
Simulation Instructions: 50000000
Number of CPUs: 1
LLC sets: 2048
LLC ways: 16
Off-chip DRAM Size: 4096 MB Channels: 1 Width: 64-bit Data Rate: 3200 MT/s

CPU 0 runs /Users/brandon/Documents/CoursesWi22/CSE240C/Homework1/ChampSim/ipc1_public/server_020.champsimtrace.xz
L1I D-JOLT instruction prefetcher has been constructed!
CPU 0 L1D next line prefetcher
Heartbeat CPU 0 instructions: 10000003 cycles: 3621429 heartbeat IPC: 2.76134 cumulative IPC: 2.76134 (Simulation time: 0 hr 1 min 43 sec) 
Heartbeat CPU 0 instructions: 20000002 cycles: 7247369 heartbeat IPC: 2.75791 cumulative IPC: 2.75962 (Simulation time: 0 hr 3 min 41 sec) 
Heartbeat CPU 0 instructions: 30000001 cycles: 10866360 heartbeat IPC: 2.7632 cumulative IPC: 2.76081 (Simulation time: 0 hr 5 min 41 sec) 
Heartbeat CPU 0 instructions: 40000002 cycles: 14486833 heartbeat IPC: 2.76207 cumulative IPC: 2.76113 (Simulation time: 0 hr 7 min 45 sec) 
Heartbeat CPU 0 instructions: 50000001 cycles: 18120680 heartbeat IPC: 2.7519 cumulative IPC: 2.75928 (Simulation time: 0 hr 9 min 45 sec) 

Warmup complete CPU 0 instructions: 50000001 cycles: 18120680 (Simulation time: 0 hr 9 min 45 sec) 

Heartbeat CPU 0 instructions: 60000003 cycles: 35567736 heartbeat IPC: 0.573163 cumulative IPC: 0.573163 (Simulation time: 0 hr 12 min 34 sec) 
Heartbeat CPU 0 instructions: 70000002 cycles: 52996807 heartbeat IPC: 0.573754 cumulative IPC: 0.573458 (Simulation time: 0 hr 15 min 13 sec) 
Heartbeat CPU 0 instructions: 80000002 cycles: 70411407 heartbeat IPC: 0.574231 cumulative IPC: 0.573716 (Simulation time: 0 hr 17 min 22 sec) 
Heartbeat CPU 0 instructions: 90000001 cycles: 87795113 heartbeat IPC: 0.575251 cumulative IPC: 0.574099 (Simulation time: 0 hr 18 min 22 sec) 
Heartbeat CPU 0 instructions: 100000002 cycles: 105241575 heartbeat IPC: 0.573182 cumulative IPC: 0.573915 (Simulation time: 0 hr 19 min 2 sec) 
Finished CPU 0 instructions: 50000001 cycles: 87120895 cumulative IPC: 0.573915 (Simulation time: 0 hr 19 min 2 sec) 

ChampSim completed all CPUs

Region of Interest Statistics

CPU 0 cumulative IPC: 0.573915 instructions: 50000001 cycles: 87120895
L1D TOTAL     ACCESS:   18638870  HIT:   16434674  MISS:    2204196
L1D LOAD      ACCESS:    7047763  HIT:    6331157  MISS:     716606
L1D RFO       ACCESS:    5806828  HIT:    4860899  MISS:     945929
L1D PREFETCH  ACCESS:    5784279  HIT:    5242618  MISS:     541661
L1D WRITEBACK ACCESS:          0  HIT:          0  MISS:          0
L1D PREFETCH  REQUESTED:    7089174  ISSUED:    6888461  USEFUL:     202425  USELESS:     339155
L1D AVERAGE MISS LATENCY: 178.497 cycles
L1I TOTAL     ACCESS:   18661204  HIT:   15207904  MISS:    3453300
L1I LOAD      ACCESS:   10121836  HIT:   10078014  MISS:      43822
L1I RFO       ACCESS:          0  HIT:          0  MISS:          0
L1I PREFETCH  ACCESS:    8539368  HIT:    5129890  MISS:    3409478
L1I WRITEBACK ACCESS:          0  HIT:          0  MISS:          0
L1I PREFETCH  REQUESTED:    9188138  ISSUED:    9130075  USEFUL:    2720844  USELESS:     688668
L1I AVERAGE MISS LATENCY: 18.2084 cycles
L2C TOTAL     ACCESS:    8332063  HIT:    6472408  MISS:    1859655
L2C LOAD      ACCESS:     533811  HIT:     266859  MISS:     266952
L2C RFO       ACCESS:     945484  HIT:      20456  MISS:     925028
L2C PREFETCH  ACCESS:    5689191  HIT:    5023243  MISS:     665948
L2C WRITEBACK ACCESS:    1163577  HIT:    1161850  MISS:       1727
L2C PREFETCH  REQUESTED:    5156549  ISSUED:    5152084  USEFUL:      21426  USELESS:     643385
L2C AVERAGE MISS LATENCY: 217.299 cycles
LLC TOTAL     ACCESS:    4264311  HIT:    2789502  MISS:    1474809
LLC LOAD      ACCESS:     266832  HIT:     163168  MISS:     103664
LLC RFO       ACCESS:     925025  HIT:     136553  MISS:     788472
LLC PREFETCH  ACCESS:    1975444  HIT:    1394633  MISS:     580811
LLC WRITEBACK ACCESS:    1097010  HIT:    1095148  MISS:       1862
LLC PREFETCH  REQUESTED:          0  ISSUED:          0  USEFUL:      33335  USELESS:     547444
LLC AVERAGE MISS LATENCY: 285.614 cycles
Major fault: 0 Minor fault: 22095
CPU 0 L1D next line prefetcher final stats

DRAM Statistics
 CHANNEL 0
 RQ ROW_BUFFER_HIT:     413459  ROW_BUFFER_MISS:    1059191
 DBUS_CONGESTED:    1472847
 WQ ROW_BUFFER_HIT:     246364  ROW_BUFFER_MISS:     646769  FULL:          0

 AVG_CONGESTED_CYCLE: 6

CPU 0 Branch Prediction Accuracy: 99.712% MPKI: 0.47638 Average ROB Occupancy at Mispredict: 215.473

Branch types
NOT_BRANCH: 41729508 83.459%
BRANCH_DIRECT_JUMP: 458220 0.91644%
BRANCH_INDIRECT: 49088 0.098176%
BRANCH_CONDITIONAL: 5938531 11.8771%
BRANCH_DIRECT_CALL: 745131 1.49026%
BRANCH_INDIRECT_CALL: 167109 0.334218%
BRANCH_RETURN: 912222 1.82444%
BRANCH_OTHER: 0 0%

