Initialize SIGNATURE TABLE
ST_SET: 1
ST_WAY: 256
ST_TAG_BIT: 16
ST_TAG_MASK: ffff

Initialize PATTERN TABLE
PT_SET: 512
PT_WAY: 4
SIG_DELTA_BIT: 7
C_SIG_BIT: 4
C_DELTA_BIT: 4

Initialize PREFETCH FILTER
FILTER_SET: 1024

*** ChampSim Multicore Out-of-Order Simulator ***

Warmup Instructions: 50000000
Simulation Instructions: 50000000
Number of CPUs: 1
LLC sets: 2048
LLC ways: 16
Off-chip DRAM Size: 4096 MB Channels: 1 Width: 64-bit Data Rate: 3200 MT/s

CPU 0 runs /Users/brandon/Documents/CoursesWi22/CSE240C/Homework1/ChampSim/ipc1_public/server_032.champsimtrace.xz
L1I D-JOLT instruction prefetcher has been constructed!
CPU 0 L1D next line prefetcher
Heartbeat CPU 0 instructions: 10000002 cycles: 3521782 heartbeat IPC: 2.83947 cumulative IPC: 2.83947 (Simulation time: 0 hr 1 min 44 sec) 
Heartbeat CPU 0 instructions: 20000003 cycles: 7044673 heartbeat IPC: 2.83858 cumulative IPC: 2.83903 (Simulation time: 0 hr 3 min 28 sec) 
Heartbeat CPU 0 instructions: 30000000 cycles: 10567591 heartbeat IPC: 2.83856 cumulative IPC: 2.83887 (Simulation time: 0 hr 5 min 12 sec) 
Heartbeat CPU 0 instructions: 40000003 cycles: 14091864 heartbeat IPC: 2.83747 cumulative IPC: 2.83852 (Simulation time: 0 hr 6 min 56 sec) 
Heartbeat CPU 0 instructions: 50000000 cycles: 17615081 heartbeat IPC: 2.83831 cumulative IPC: 2.83848 (Simulation time: 0 hr 8 min 38 sec) 

Warmup complete CPU 0 instructions: 50000004 cycles: 17615082 (Simulation time: 0 hr 8 min 38 sec) 

Heartbeat CPU 0 instructions: 60000002 cycles: 24287726 heartbeat IPC: 1.49866 cumulative IPC: 1.49866 (Simulation time: 0 hr 10 min 19 sec) 
Heartbeat CPU 0 instructions: 70000000 cycles: 30956564 heartbeat IPC: 1.49951 cumulative IPC: 1.49908 (Simulation time: 0 hr 12 min 0 sec) 
*** Reached end of trace for Core: 0 Repeating trace: /Users/brandon/Documents/CoursesWi22/CSE240C/Homework1/ChampSim/ipc1_public/server_032.champsimtrace.xz
Heartbeat CPU 0 instructions: 80000003 cycles: 37629237 heartbeat IPC: 1.49865 cumulative IPC: 1.49894 (Simulation time: 0 hr 13 min 47 sec) 
Heartbeat CPU 0 instructions: 90000002 cycles: 44272165 heartbeat IPC: 1.50536 cumulative IPC: 1.50054 (Simulation time: 0 hr 15 min 11 sec) 
Heartbeat CPU 0 instructions: 100000001 cycles: 50922859 heartbeat IPC: 1.5036 cumulative IPC: 1.50115 (Simulation time: 0 hr 16 min 11 sec) 
Finished CPU 0 instructions: 50000002 cycles: 33307779 cumulative IPC: 1.50115 (Simulation time: 0 hr 16 min 11 sec) 

ChampSim completed all CPUs

Region of Interest Statistics

CPU 0 cumulative IPC: 1.50115 instructions: 50000002 cycles: 33307779
L1D TOTAL     ACCESS:   19817070  HIT:   17989003  MISS:    1828067
L1D LOAD      ACCESS:    6767494  HIT:    5974173  MISS:     793321
L1D RFO       ACCESS:    6559570  HIT:    6264931  MISS:     294639
L1D PREFETCH  ACCESS:    6490006  HIT:    5749899  MISS:     740107
L1D WRITEBACK ACCESS:          0  HIT:          0  MISS:          0
L1D PREFETCH  REQUESTED:    6815716  ISSUED:    6676642  USEFUL:     170773  USELESS:     569333
L1D AVERAGE MISS LATENCY: 18.3646 cycles
L1I TOTAL     ACCESS:   17242744  HIT:   13854779  MISS:    3387965
L1I LOAD      ACCESS:    9695527  HIT:    9641819  MISS:      53708
L1I RFO       ACCESS:          0  HIT:          0  MISS:          0
L1I PREFETCH  ACCESS:    7547217  HIT:    4212960  MISS:    3334257
L1I WRITEBACK ACCESS:          0  HIT:          0  MISS:          0
L1I PREFETCH  REQUESTED:    7889843  ISSUED:    7867610  USEFUL:    3138983  USELESS:     195274
L1I AVERAGE MISS LATENCY: 17.3985 cycles
L2C TOTAL     ACCESS:    7629004  HIT:    7126814  MISS:     502190
L2C LOAD      ACCESS:     819258  HIT:     732556  MISS:      86702
L2C RFO       ACCESS:     292730  HIT:     249775  MISS:      42955
L2C PREFETCH  ACCESS:    5880641  HIT:    5510388  MISS:     370253
L2C WRITEBACK ACCESS:     636375  HIT:     634095  MISS:       2280
L2C PREFETCH  REQUESTED:    5511880  ISSUED:    5495189  USEFUL:       4289  USELESS:     365901
L2C AVERAGE MISS LATENCY: 32.7671 cycles
LLC TOTAL     ACCESS:    2176381  HIT:    2170385  MISS:       5996
LLC LOAD      ACCESS:      86563  HIT:      86121  MISS:        442
LLC RFO       ACCESS:      42955  HIT:      42954  MISS:          1
LLC PREFETCH  ACCESS:    1973700  HIT:    1968184  MISS:       5516
LLC WRITEBACK ACCESS:      73163  HIT:      73126  MISS:         37
LLC PREFETCH  REQUESTED:          0  ISSUED:          0  USEFUL:        386  USELESS:       2248
LLC AVERAGE MISS LATENCY: 148.663 cycles
Major fault: 0 Minor fault: 1183
CPU 0 L1D next line prefetcher final stats

DRAM Statistics
 CHANNEL 0
 RQ ROW_BUFFER_HIT:       1507  ROW_BUFFER_MISS:       4452
 DBUS_CONGESTED:        701
 WQ ROW_BUFFER_HIT:          0  ROW_BUFFER_MISS:         22  FULL:          0

 AVG_CONGESTED_CYCLE: 4

CPU 0 Branch Prediction Accuracy: 99.8762% MPKI: 0.2296 Average ROB Occupancy at Mispredict: 179.138

Branch types
NOT_BRANCH: 40726177 81.4524%
BRANCH_DIRECT_JUMP: 508374 1.01675%
BRANCH_INDIRECT: 180051 0.360102%
BRANCH_CONDITIONAL: 5999665 11.9993%
BRANCH_DIRECT_CALL: 1086739 2.17348%
BRANCH_INDIRECT_CALL: 206109 0.412218%
BRANCH_RETURN: 1292837 2.58567%
BRANCH_OTHER: 0 0%

