Initialize SIGNATURE TABLE
ST_SET: 1
ST_WAY: 256
ST_TAG_BIT: 16
ST_TAG_MASK: ffff

Initialize PATTERN TABLE
PT_SET: 512
PT_WAY: 4
SIG_DELTA_BIT: 7
C_SIG_BIT: 4
C_DELTA_BIT: 4

Initialize PREFETCH FILTER
FILTER_SET: 1024

*** ChampSim Multicore Out-of-Order Simulator ***

Warmup Instructions: 50000000
Simulation Instructions: 50000000
Number of CPUs: 1
LLC sets: 2048
LLC ways: 16
Off-chip DRAM Size: 4096 MB Channels: 1 Width: 64-bit Data Rate: 3200 MT/s

CPU 0 runs /Users/brandon/Documents/CoursesWi22/CSE240C/Homework1/ChampSim/ipc1_public/server_037.champsimtrace.xz
L1I D-JOLT instruction prefetcher has been constructed!
CPU 0 L1D next line prefetcher
Heartbeat CPU 0 instructions: 10000001 cycles: 3319373 heartbeat IPC: 3.01262 cumulative IPC: 3.01262 (Simulation time: 0 hr 1 min 43 sec) 
Heartbeat CPU 0 instructions: 20000002 cycles: 6636184 heartbeat IPC: 3.01494 cumulative IPC: 3.01378 (Simulation time: 0 hr 3 min 27 sec) 
Heartbeat CPU 0 instructions: 30000003 cycles: 10000933 heartbeat IPC: 2.97199 cumulative IPC: 2.99972 (Simulation time: 0 hr 5 min 10 sec) 
Heartbeat CPU 0 instructions: 40000000 cycles: 13319488 heartbeat IPC: 3.01336 cumulative IPC: 3.00312 (Simulation time: 0 hr 6 min 55 sec) 
Heartbeat CPU 0 instructions: 50000003 cycles: 16637909 heartbeat IPC: 3.01348 cumulative IPC: 3.00519 (Simulation time: 0 hr 8 min 39 sec) 

Warmup complete CPU 0 instructions: 50000003 cycles: 16637909 (Simulation time: 0 hr 8 min 39 sec) 

Heartbeat CPU 0 instructions: 60000001 cycles: 23053953 heartbeat IPC: 1.55859 cumulative IPC: 1.55859 (Simulation time: 0 hr 10 min 21 sec) 
Heartbeat CPU 0 instructions: 70000000 cycles: 29554816 heartbeat IPC: 1.53826 cumulative IPC: 1.54836 (Simulation time: 0 hr 12 min 4 sec) 
Heartbeat CPU 0 instructions: 80000000 cycles: 35966854 heartbeat IPC: 1.55957 cumulative IPC: 1.55208 (Simulation time: 0 hr 13 min 33 sec) 
Heartbeat CPU 0 instructions: 90000002 cycles: 42395538 heartbeat IPC: 1.55553 cumulative IPC: 1.55294 (Simulation time: 0 hr 14 min 59 sec) 
*** Reached end of trace for Core: 0 Repeating trace: /Users/brandon/Documents/CoursesWi22/CSE240C/Homework1/ChampSim/ipc1_public/server_037.champsimtrace.xz
Heartbeat CPU 0 instructions: 100000000 cycles: 48812815 heartbeat IPC: 1.55829 cumulative IPC: 1.55401 (Simulation time: 0 hr 16 min 7 sec) 
Finished CPU 0 instructions: 50000001 cycles: 32174907 cumulative IPC: 1.55401 (Simulation time: 0 hr 16 min 7 sec) 

ChampSim completed all CPUs

Region of Interest Statistics

CPU 0 cumulative IPC: 1.55401 instructions: 50000001 cycles: 32174907
L1D TOTAL     ACCESS:   18685935  HIT:   17708033  MISS:     977902
L1D LOAD      ACCESS:    6358830  HIT:    5867657  MISS:     491173
L1D RFO       ACCESS:    6205268  HIT:    6141259  MISS:      64009
L1D PREFETCH  ACCESS:    6121837  HIT:    5699117  MISS:     422720
L1D WRITEBACK ACCESS:          0  HIT:          0  MISS:          0
L1D PREFETCH  REQUESTED:    6396568  ISSUED:    6243537  USEFUL:     117595  USELESS:     305128
L1D AVERAGE MISS LATENCY: 29.7134 cycles
L1I TOTAL     ACCESS:   20215211  HIT:   15223535  MISS:    4991676
L1I LOAD      ACCESS:    9450967  HIT:    9399781  MISS:      51186
L1I RFO       ACCESS:          0  HIT:          0  MISS:          0
L1I PREFETCH  ACCESS:   10764244  HIT:    5823754  MISS:    4940490
L1I WRITEBACK ACCESS:          0  HIT:          0  MISS:          0
L1I PREFETCH  REQUESTED:   11251934  ISSUED:   11213518  USEFUL:    4089291  USELESS:     851219
L1I AVERAGE MISS LATENCY: 14.7703 cycles
L2C TOTAL     ACCESS:    8798097  HIT:    8466725  MISS:     331372
L2C LOAD      ACCESS:     536392  HIT:     386438  MISS:     149954
L2C RFO       ACCESS:      63774  HIT:      35501  MISS:      28273
L2C PREFETCH  ACCESS:    7908375  HIT:    7756269  MISS:     152106
L2C WRITEBACK ACCESS:     289556  HIT:     288517  MISS:       1039
L2C PREFETCH  REQUESTED:    6735752  ISSUED:    6717196  USEFUL:       7232  USELESS:     144780
L2C AVERAGE MISS LATENCY: 44.3121 cycles
LLC TOTAL     ACCESS:    2131106  HIT:    2069121  MISS:      61985
LLC LOAD      ACCESS:     149934  HIT:     137163  MISS:      12771
LLC RFO       ACCESS:      28271  HIT:      23886  MISS:       4385
LLC PREFETCH  ACCESS:    1802764  HIT:    1758539  MISS:      44225
LLC WRITEBACK ACCESS:     150137  HIT:     149533  MISS:        604
LLC PREFETCH  REQUESTED:          0  ISSUED:          0  USEFUL:       4678  USELESS:      39033
LLC AVERAGE MISS LATENCY: 170.459 cycles
Major fault: 0 Minor fault: 5654
CPU 0 L1D next line prefetcher final stats

DRAM Statistics
 CHANNEL 0
 RQ ROW_BUFFER_HIT:      15100  ROW_BUFFER_MISS:      46281
 DBUS_CONGESTED:      24053
 WQ ROW_BUFFER_HIT:       1599  ROW_BUFFER_MISS:      10761  FULL:          0

 AVG_CONGESTED_CYCLE: 4

CPU 0 Branch Prediction Accuracy: 99.913% MPKI: 0.15656 Average ROB Occupancy at Mispredict: 228.367

Branch types
NOT_BRANCH: 41001727 82.0035%
BRANCH_DIRECT_JUMP: 541941 1.08388%
BRANCH_INDIRECT: 59716 0.119432%
BRANCH_CONDITIONAL: 5916854 11.8337%
BRANCH_DIRECT_CALL: 1005465 2.01093%
BRANCH_INDIRECT_CALL: 234433 0.468866%
BRANCH_RETURN: 1239878 2.47976%
BRANCH_OTHER: 0 0%

