Initialize SIGNATURE TABLE
ST_SET: 1
ST_WAY: 256
ST_TAG_BIT: 16
ST_TAG_MASK: ffff

Initialize PATTERN TABLE
PT_SET: 512
PT_WAY: 4
SIG_DELTA_BIT: 7
C_SIG_BIT: 4
C_DELTA_BIT: 4

Initialize PREFETCH FILTER
FILTER_SET: 1024

*** ChampSim Multicore Out-of-Order Simulator ***

Warmup Instructions: 50000000
Simulation Instructions: 50000000
Number of CPUs: 1
LLC sets: 2048
LLC ways: 16
Off-chip DRAM Size: 4096 MB Channels: 1 Width: 64-bit Data Rate: 3200 MT/s

CPU 0 runs /Users/brandon/Documents/CoursesWi22/CSE240C/Homework1/ChampSim/ipc1_public/server_016.champsimtrace.xz
L1I D-JOLT instruction prefetcher has been constructed!
CPU 0 L1D next line prefetcher
Heartbeat CPU 0 instructions: 10000000 cycles: 3496509 heartbeat IPC: 2.86 cumulative IPC: 2.86 (Simulation time: 0 hr 1 min 40 sec) 
Heartbeat CPU 0 instructions: 20000000 cycles: 6993759 heartbeat IPC: 2.85939 cumulative IPC: 2.85969 (Simulation time: 0 hr 3 min 35 sec) 
Heartbeat CPU 0 instructions: 30000001 cycles: 10485844 heartbeat IPC: 2.86362 cumulative IPC: 2.861 (Simulation time: 0 hr 5 min 28 sec) 
Heartbeat CPU 0 instructions: 40000000 cycles: 13783761 heartbeat IPC: 3.03222 cumulative IPC: 2.90197 (Simulation time: 0 hr 6 min 20 sec) 
Heartbeat CPU 0 instructions: 50000002 cycles: 17019226 heartbeat IPC: 3.09075 cumulative IPC: 2.93785 (Simulation time: 0 hr 6 min 56 sec) 

Warmup complete CPU 0 instructions: 50000002 cycles: 17019226 (Simulation time: 0 hr 6 min 56 sec) 

Heartbeat CPU 0 instructions: 60000000 cycles: 24976531 heartbeat IPC: 1.25671 cumulative IPC: 1.25671 (Simulation time: 0 hr 7 min 42 sec) 
Heartbeat CPU 0 instructions: 70000001 cycles: 31761396 heartbeat IPC: 1.47387 cumulative IPC: 1.35665 (Simulation time: 0 hr 9 min 40 sec) 
Heartbeat CPU 0 instructions: 80000001 cycles: 38644773 heartbeat IPC: 1.45278 cumulative IPC: 1.38725 (Simulation time: 0 hr 11 min 45 sec) 
Heartbeat CPU 0 instructions: 90000000 cycles: 45307575 heartbeat IPC: 1.50087 cumulative IPC: 1.41401 (Simulation time: 0 hr 13 min 42 sec) 
Heartbeat CPU 0 instructions: 100000000 cycles: 52115990 heartbeat IPC: 1.46877 cumulative IPC: 1.42463 (Simulation time: 0 hr 15 min 35 sec) 
Finished CPU 0 instructions: 50000002 cycles: 35096765 cumulative IPC: 1.42463 (Simulation time: 0 hr 15 min 35 sec) 

ChampSim completed all CPUs

Region of Interest Statistics

CPU 0 cumulative IPC: 1.42463 instructions: 50000002 cycles: 35096765
L1D TOTAL     ACCESS:   17896654  HIT:   16629408  MISS:    1267246
L1D LOAD      ACCESS:    6492792  HIT:    5918918  MISS:     573874
L1D RFO       ACCESS:    5194141  HIT:    4972157  MISS:     221984
L1D PREFETCH  ACCESS:    6209721  HIT:    5738333  MISS:     471388
L1D WRITEBACK ACCESS:          0  HIT:          0  MISS:          0
L1D PREFETCH  REQUESTED:    6535193  ISSUED:    6429581  USEFUL:     112406  USELESS:     359001
L1D AVERAGE MISS LATENCY: 24.5164 cycles
L1I TOTAL     ACCESS:   15086346  HIT:   12660545  MISS:    2425801
L1I LOAD      ACCESS:    9876755  HIT:    9842314  MISS:      34441
L1I RFO       ACCESS:          0  HIT:          0  MISS:          0
L1I PREFETCH  ACCESS:    5209591  HIT:    2818231  MISS:    2391360
L1I WRITEBACK ACCESS:          0  HIT:          0  MISS:          0
L1I PREFETCH  REQUESTED:    5552598  ISSUED:    5489045  USEFUL:    2074914  USELESS:     316439
L1I AVERAGE MISS LATENCY: 20.0724 cycles
L2C TOTAL     ACCESS:    5112840  HIT:    4405601  MISS:     707239
L2C LOAD      ACCESS:     553782  HIT:     431946  MISS:     121836
L2C RFO       ACCESS:     220200  HIT:     154926  MISS:      65274
L2C PREFETCH  ACCESS:    3910648  HIT:    3394743  MISS:     515905
L2C WRITEBACK ACCESS:     428210  HIT:     423986  MISS:       4224
L2C PREFETCH  REQUESTED:    3687912  ISSUED:    3683792  USEFUL:      10483  USELESS:     504456
L2C AVERAGE MISS LATENCY: 38.9129 cycles
LLC TOTAL     ACCESS:    1844064  HIT:    1805229  MISS:      38835
LLC LOAD      ACCESS:     121599  HIT:     117233  MISS:       4366
LLC RFO       ACCESS:      65273  HIT:      51755  MISS:      13518
LLC PREFETCH  ACCESS:    1538808  HIT:    1518059  MISS:      20749
LLC WRITEBACK ACCESS:     118384  HIT:     118182  MISS:        202
LLC PREFETCH  REQUESTED:          0  ISSUED:          0  USEFUL:       1737  USELESS:      18417
LLC AVERAGE MISS LATENCY: 177.376 cycles
Major fault: 0 Minor fault: 2372
CPU 0 L1D next line prefetcher final stats

DRAM Statistics
 CHANNEL 0
 RQ ROW_BUFFER_HIT:      11798  ROW_BUFFER_MISS:      26824
 DBUS_CONGESTED:      23570
 WQ ROW_BUFFER_HIT:       1701  ROW_BUFFER_MISS:      14936  FULL:          0

 AVG_CONGESTED_CYCLE: 6

CPU 0 Branch Prediction Accuracy: 99.7225% MPKI: 0.50376 Average ROB Occupancy at Mispredict: 134.148

Branch types
NOT_BRANCH: 40924097 81.8482%
BRANCH_DIRECT_JUMP: 487048 0.974096%
BRANCH_INDIRECT: 169159 0.338318%
BRANCH_CONDITIONAL: 6640845 13.2817%
BRANCH_DIRECT_CALL: 755593 1.51119%
BRANCH_INDIRECT_CALL: 133962 0.267924%
BRANCH_RETURN: 889572 1.77914%
BRANCH_OTHER: 0 0%

