Initialize SIGNATURE TABLE
ST_SET: 1
ST_WAY: 256
ST_TAG_BIT: 16
ST_TAG_MASK: ffff

Initialize PATTERN TABLE
PT_SET: 512
PT_WAY: 4
SIG_DELTA_BIT: 7
C_SIG_BIT: 4
C_DELTA_BIT: 4

Initialize PREFETCH FILTER
FILTER_SET: 1024

*** ChampSim Multicore Out-of-Order Simulator ***

Warmup Instructions: 50000000
Simulation Instructions: 50000000
Number of CPUs: 1
LLC sets: 2048
LLC ways: 16
Off-chip DRAM Size: 4096 MB Channels: 1 Width: 64-bit Data Rate: 3200 MT/s

CPU 0 runs /Users/brandon/Documents/CoursesWi22/CSE240C/Homework1/ChampSim/ipc1_public/spec_gcc_002.champsimtrace.xz
L1I D-JOLT instruction prefetcher has been constructed!
CPU 0 L1D next line prefetcher
Heartbeat CPU 0 instructions: 10000002 cycles: 3562275 heartbeat IPC: 2.8072 cumulative IPC: 2.8072 (Simulation time: 0 hr 1 min 19 sec) 
Heartbeat CPU 0 instructions: 20000000 cycles: 7127034 heartbeat IPC: 2.80524 cumulative IPC: 2.80622 (Simulation time: 0 hr 2 min 36 sec) 
Heartbeat CPU 0 instructions: 30000000 cycles: 10759513 heartbeat IPC: 2.75294 cumulative IPC: 2.78823 (Simulation time: 0 hr 4 min 0 sec) 
Heartbeat CPU 0 instructions: 40000000 cycles: 14305967 heartbeat IPC: 2.81972 cumulative IPC: 2.79604 (Simulation time: 0 hr 5 min 17 sec) 
Heartbeat CPU 0 instructions: 50000002 cycles: 17765958 heartbeat IPC: 2.89018 cumulative IPC: 2.81437 (Simulation time: 0 hr 6 min 28 sec) 

Warmup complete CPU 0 instructions: 50000002 cycles: 17765958 (Simulation time: 0 hr 6 min 28 sec) 

Heartbeat CPU 0 instructions: 60000001 cycles: 49897901 heartbeat IPC: 0.311217 cumulative IPC: 0.311217 (Simulation time: 0 hr 9 min 10 sec) 
Heartbeat CPU 0 instructions: 70000001 cycles: 80683918 heartbeat IPC: 0.324823 cumulative IPC: 0.317874 (Simulation time: 0 hr 11 min 42 sec) 
Heartbeat CPU 0 instructions: 80000002 cycles: 126700602 heartbeat IPC: 0.217313 cumulative IPC: 0.275394 (Simulation time: 0 hr 14 min 29 sec) 
Heartbeat CPU 0 instructions: 90000001 cycles: 168197149 heartbeat IPC: 0.240984 cumulative IPC: 0.265902 (Simulation time: 0 hr 16 min 18 sec) 
Heartbeat CPU 0 instructions: 100000000 cycles: 192056441 heartbeat IPC: 0.419124 cumulative IPC: 0.286877 (Simulation time: 0 hr 16 min 42 sec) 
Finished CPU 0 instructions: 50000002 cycles: 174290491 cumulative IPC: 0.286877 (Simulation time: 0 hr 16 min 42 sec) 

ChampSim completed all CPUs

Region of Interest Statistics

CPU 0 cumulative IPC: 0.286877 instructions: 50000002 cycles: 174290491
L1D TOTAL     ACCESS:   18258373  HIT:   13024899  MISS:    5233474
L1D LOAD      ACCESS:    6327774  HIT:    5313129  MISS:    1014645
L1D RFO       ACCESS:    7065696  HIT:    3465147  MISS:    3600549
L1D PREFETCH  ACCESS:    4864903  HIT:    4246623  MISS:     618280
L1D WRITEBACK ACCESS:          0  HIT:          0  MISS:          0
L1D PREFETCH  REQUESTED:    6347721  ISSUED:    6276923  USEFUL:     458605  USELESS:     159891
L1D AVERAGE MISS LATENCY: 317.296 cycles
L1I TOTAL     ACCESS:   17008536  HIT:   15772609  MISS:    1235927
L1I LOAD      ACCESS:   12016861  HIT:   11968197  MISS:      48664
L1I RFO       ACCESS:          0  HIT:          0  MISS:          0
L1I PREFETCH  ACCESS:    4991675  HIT:    3804412  MISS:    1187263
L1I WRITEBACK ACCESS:          0  HIT:          0  MISS:          0
L1I PREFETCH  REQUESTED:    5604384  ISSUED:    5373341  USEFUL:     690636  USELESS:     496676
L1I AVERAGE MISS LATENCY: 53.2007 cycles
L2C TOTAL     ACCESS:   10703196  HIT:    5315548  MISS:    5387648
L2C LOAD      ACCESS:     284182  HIT:     110024  MISS:     174158
L2C RFO       ACCESS:    3599039  HIT:      10964  MISS:    3588075
L2C PREFETCH  ACCESS:    3094506  HIT:    1469299  MISS:    1625207
L2C WRITEBACK ACCESS:    3725469  HIT:    3725261  MISS:        208
L2C PREFETCH  REQUESTED:    3376569  ISSUED:    3376433  USEFUL:      26847  USELESS:    1598621
L2C AVERAGE MISS LATENCY: 318.086 cycles
LLC TOTAL     ACCESS:   10237994  HIT:    6973663  MISS:    3264331
LLC LOAD      ACCESS:     174057  HIT:     127473  MISS:      46584
LLC RFO       ACCESS:    3588076  HIT:     917349  MISS:    2670727
LLC PREFETCH  ACCESS:    2802521  HIT:    2255501  MISS:     547020
LLC WRITEBACK ACCESS:    3673340  HIT:    3673340  MISS:          0
LLC PREFETCH  REQUESTED:          0  ISSUED:          0  USEFUL:     185349  USELESS:     362145
LLC AVERAGE MISS LATENCY: 495.301 cycles
Major fault: 0 Minor fault: 4154
CPU 0 L1D next line prefetcher final stats

DRAM Statistics
 CHANNEL 0
 RQ ROW_BUFFER_HIT:     889453  ROW_BUFFER_MISS:    2372855
 DBUS_CONGESTED:    4981168
 WQ ROW_BUFFER_HIT:     819032  ROW_BUFFER_MISS:    2056281  FULL:          0

 AVG_CONGESTED_CYCLE: 6

CPU 0 Branch Prediction Accuracy: 99.5987% MPKI: 0.82446 Average ROB Occupancy at Mispredict: 135.08

Branch types
NOT_BRANCH: 39726800 79.4536%
BRANCH_DIRECT_JUMP: 391438 0.782876%
BRANCH_INDIRECT: 62076 0.124152%
BRANCH_CONDITIONAL: 8421539 16.8431%
BRANCH_DIRECT_CALL: 672961 1.34592%
BRANCH_INDIRECT_CALL: 26115 0.05223%
BRANCH_RETURN: 699082 1.39816%
BRANCH_OTHER: 0 0%

