Initialize SIGNATURE TABLE
ST_SET: 1
ST_WAY: 256
ST_TAG_BIT: 16
ST_TAG_MASK: ffff

Initialize PATTERN TABLE
PT_SET: 512
PT_WAY: 4
SIG_DELTA_BIT: 7
C_SIG_BIT: 4
C_DELTA_BIT: 4

Initialize PREFETCH FILTER
FILTER_SET: 1024

*** ChampSim Multicore Out-of-Order Simulator ***

Warmup Instructions: 50000000
Simulation Instructions: 50000000
Number of CPUs: 1
LLC sets: 2048
LLC ways: 16
Off-chip DRAM Size: 4096 MB Channels: 1 Width: 64-bit Data Rate: 3200 MT/s

CPU 0 runs /Users/brandon/Documents/CoursesWi22/CSE240C/Homework1/ChampSim/ipc1_public/spec_x264_001.champsimtrace.xz
L1I D-JOLT instruction prefetcher has been constructed!
CPU 0 L1D next line prefetcher
Heartbeat CPU 0 instructions: 10000002 cycles: 3059614 heartbeat IPC: 3.26839 cumulative IPC: 3.26839 (Simulation time: 0 hr 1 min 6 sec) 
Heartbeat CPU 0 instructions: 20000002 cycles: 6109315 heartbeat IPC: 3.27901 cumulative IPC: 3.27369 (Simulation time: 0 hr 2 min 12 sec) 
Heartbeat CPU 0 instructions: 30000002 cycles: 9144553 heartbeat IPC: 3.29463 cumulative IPC: 3.28064 (Simulation time: 0 hr 3 min 18 sec) 
Heartbeat CPU 0 instructions: 40000000 cycles: 12188615 heartbeat IPC: 3.28508 cumulative IPC: 3.28175 (Simulation time: 0 hr 4 min 24 sec) 
Heartbeat CPU 0 instructions: 50000000 cycles: 15231493 heartbeat IPC: 3.28636 cumulative IPC: 3.28267 (Simulation time: 0 hr 5 min 30 sec) 

Warmup complete CPU 0 instructions: 50000004 cycles: 15231494 (Simulation time: 0 hr 5 min 30 sec) 

Heartbeat CPU 0 instructions: 60000001 cycles: 21161197 heartbeat IPC: 1.68642 cumulative IPC: 1.68642 (Simulation time: 0 hr 6 min 8 sec) 
Heartbeat CPU 0 instructions: 70000000 cycles: 27070522 heartbeat IPC: 1.69224 cumulative IPC: 1.68933 (Simulation time: 0 hr 6 min 45 sec) 
Heartbeat CPU 0 instructions: 80000003 cycles: 33127927 heartbeat IPC: 1.65087 cumulative IPC: 1.67631 (Simulation time: 0 hr 7 min 21 sec) 
Heartbeat CPU 0 instructions: 90000000 cycles: 39165382 heartbeat IPC: 1.65633 cumulative IPC: 1.67127 (Simulation time: 0 hr 7 min 58 sec) 
Heartbeat CPU 0 instructions: 100000002 cycles: 45062919 heartbeat IPC: 1.69562 cumulative IPC: 1.67608 (Simulation time: 0 hr 8 min 34 sec) 
Finished CPU 0 instructions: 50000002 cycles: 29831426 cumulative IPC: 1.67608 (Simulation time: 0 hr 8 min 34 sec) 

ChampSim completed all CPUs

Region of Interest Statistics

CPU 0 cumulative IPC: 1.67608 instructions: 50000002 cycles: 29831426
L1D TOTAL     ACCESS:   12969916  HIT:   12808981  MISS:     160935
L1D LOAD      ACCESS:    5096054  HIT:    5040959  MISS:      55095
L1D RFO       ACCESS:    2883438  HIT:    2849119  MISS:      34319
L1D PREFETCH  ACCESS:    4990424  HIT:    4918903  MISS:      71521
L1D WRITEBACK ACCESS:          0  HIT:          0  MISS:          0
L1D PREFETCH  REQUESTED:    5112924  ISSUED:    5045239  USEFUL:      25722  USELESS:      45608
L1D AVERAGE MISS LATENCY: 40.0043 cycles
L1I TOTAL     ACCESS:    9530565  HIT:    9124958  MISS:     405607
L1I LOAD      ACCESS:    8037502  HIT:    8030493  MISS:       7009
L1I RFO       ACCESS:          0  HIT:          0  MISS:          0
L1I PREFETCH  ACCESS:    1493063  HIT:    1094465  MISS:     398598
L1I WRITEBACK ACCESS:          0  HIT:          0  MISS:          0
L1I PREFETCH  REQUESTED:    1605100  ISSUED:    1584443  USEFUL:     301330  USELESS:      97306
L1I AVERAGE MISS LATENCY: 14.9726 cycles
L2C TOTAL     ACCESS:     870095  HIT:     830588  MISS:      39507
L2C LOAD      ACCESS:      59931  HIT:      54445  MISS:       5486
L2C RFO       ACCESS:      34134  HIT:      22022  MISS:      12112
L2C PREFETCH  ACCESS:     732937  HIT:     711101  MISS:      21836
L2C WRITEBACK ACCESS:      43093  HIT:      43020  MISS:         73
L2C PREFETCH  REQUESTED:     652003  ISSUED:     647249  USEFUL:       9043  USELESS:      13039
L2C AVERAGE MISS LATENCY: 102.188 cycles
LLC TOTAL     ACCESS:     122435  HIT:      93331  MISS:      29104
LLC LOAD      ACCESS:       5485  HIT:       3395  MISS:       2090
LLC RFO       ACCESS:      12112  HIT:        505  MISS:      11607
LLC PREFETCH  ACCESS:      91259  HIT:      75930  MISS:      15329
LLC WRITEBACK ACCESS:      13579  HIT:      13501  MISS:         78
LLC PREFETCH  REQUESTED:          0  ISSUED:          0  USEFUL:       1807  USELESS:      14195
LLC AVERAGE MISS LATENCY: 161.755 cycles
Major fault: 0 Minor fault: 1285
CPU 0 L1D next line prefetcher final stats

DRAM Statistics
 CHANNEL 0
 RQ ROW_BUFFER_HIT:      10019  ROW_BUFFER_MISS:      19007
 DBUS_CONGESTED:      12347
 WQ ROW_BUFFER_HIT:       2928  ROW_BUFFER_MISS:       9656  FULL:          0

 AVG_CONGESTED_CYCLE: 6

CPU 0 Branch Prediction Accuracy: 97.1633% MPKI: 1.73704 Average ROB Occupancy at Mispredict: 43.0622

Branch types
NOT_BRANCH: 46937921 93.8758%
BRANCH_DIRECT_JUMP: 170816 0.341632%
BRANCH_INDIRECT: 0 0%
BRANCH_CONDITIONAL: 2532774 5.06555%
BRANCH_DIRECT_CALL: 114227 0.228454%
BRANCH_INDIRECT_CALL: 64863 0.129726%
BRANCH_RETURN: 179089 0.358178%
BRANCH_OTHER: 0 0%

