Initialize SIGNATURE TABLE
ST_SET: 1
ST_WAY: 256
ST_TAG_BIT: 16
ST_TAG_MASK: ffff

Initialize PATTERN TABLE
PT_SET: 512
PT_WAY: 4
SIG_DELTA_BIT: 7
C_SIG_BIT: 4
C_DELTA_BIT: 4

Initialize PREFETCH FILTER
FILTER_SET: 1024

*** ChampSim Multicore Out-of-Order Simulator ***

Warmup Instructions: 50000000
Simulation Instructions: 50000000
Number of CPUs: 1
LLC sets: 2048
LLC ways: 16
Off-chip DRAM Size: 4096 MB Channels: 1 Width: 64-bit Data Rate: 3200 MT/s

CPU 0 runs /Users/brandon/Documents/CoursesWi22/CSE240C/Homework1/ChampSim/ipc1_public/spec_gobmk_001.champsimtrace.xz
L1I D-JOLT instruction prefetcher has been constructed!
CPU 0 L1D next line prefetcher
Heartbeat CPU 0 instructions: 10000003 cycles: 3507163 heartbeat IPC: 2.85131 cumulative IPC: 2.85131 (Simulation time: 0 hr 1 min 23 sec) 
Heartbeat CPU 0 instructions: 20000002 cycles: 6987503 heartbeat IPC: 2.87328 cumulative IPC: 2.86225 (Simulation time: 0 hr 2 min 48 sec) 
Heartbeat CPU 0 instructions: 30000002 cycles: 10506410 heartbeat IPC: 2.84179 cumulative IPC: 2.8554 (Simulation time: 0 hr 4 min 13 sec) 
Heartbeat CPU 0 instructions: 40000001 cycles: 14025498 heartbeat IPC: 2.84165 cumulative IPC: 2.85195 (Simulation time: 0 hr 5 min 37 sec) 
Heartbeat CPU 0 instructions: 50000001 cycles: 17565627 heartbeat IPC: 2.82476 cumulative IPC: 2.84647 (Simulation time: 0 hr 7 min 2 sec) 

Warmup complete CPU 0 instructions: 50000001 cycles: 17565627 (Simulation time: 0 hr 7 min 2 sec) 

Heartbeat CPU 0 instructions: 60000000 cycles: 26311519 heartbeat IPC: 1.14339 cumulative IPC: 1.14339 (Simulation time: 0 hr 8 min 5 sec) 
Heartbeat CPU 0 instructions: 70000002 cycles: 34684416 heartbeat IPC: 1.19433 cumulative IPC: 1.16831 (Simulation time: 0 hr 9 min 6 sec) 
Heartbeat CPU 0 instructions: 80000003 cycles: 43504761 heartbeat IPC: 1.13374 cumulative IPC: 1.15655 (Simulation time: 0 hr 10 min 4 sec) 
Heartbeat CPU 0 instructions: 90000001 cycles: 51989350 heartbeat IPC: 1.17861 cumulative IPC: 1.16199 (Simulation time: 0 hr 11 min 4 sec) 
Heartbeat CPU 0 instructions: 100000003 cycles: 60790566 heartbeat IPC: 1.13621 cumulative IPC: 1.15674 (Simulation time: 0 hr 12 min 4 sec) 
Finished CPU 0 instructions: 50000002 cycles: 43224939 cumulative IPC: 1.15674 (Simulation time: 0 hr 12 min 4 sec) 

ChampSim completed all CPUs

Region of Interest Statistics

CPU 0 cumulative IPC: 1.15674 instructions: 50000002 cycles: 43224939
L1D TOTAL     ACCESS:   17973970  HIT:   17594496  MISS:     379474
L1D LOAD      ACCESS:    7206729  HIT:    7071074  MISS:     135655
L1D RFO       ACCESS:    3700122  HIT:    3595561  MISS:     104561
L1D PREFETCH  ACCESS:    7067119  HIT:    6927861  MISS:     139258
L1D WRITEBACK ACCESS:          0  HIT:          0  MISS:          0
L1D PREFETCH  REQUESTED:    7212114  ISSUED:    7129407  USEFUL:      44588  USELESS:      94676
L1D AVERAGE MISS LATENCY: 32.9393 cycles
L1I TOTAL     ACCESS:   14493302  HIT:   12797298  MISS:    1696004
L1I LOAD      ACCESS:    8974292  HIT:    8937242  MISS:      37050
L1I RFO       ACCESS:          0  HIT:          0  MISS:          0
L1I PREFETCH  ACCESS:    5519010  HIT:    3860056  MISS:    1658954
L1I WRITEBACK ACCESS:          0  HIT:          0  MISS:          0
L1I PREFETCH  REQUESTED:    5698787  ISSUED:    5576894  USEFUL:     824606  USELESS:     834279
L1I AVERAGE MISS LATENCY: 15.2432 cycles
L2C TOTAL     ACCESS:    3002213  HIT:    2871587  MISS:     130626
L2C LOAD      ACCESS:     145673  HIT:     110015  MISS:      35658
L2C RFO       ACCESS:     104210  HIT:      70100  MISS:      34110
L2C PREFETCH  ACCESS:    2613043  HIT:    2552215  MISS:      60828
L2C WRITEBACK ACCESS:     139287  HIT:     139257  MISS:         30
L2C PREFETCH  REQUESTED:    1356364  ISSUED:    1356298  USEFUL:       5475  USELESS:      55762
L2C AVERAGE MISS LATENCY: 60.8066 cycles
LLC TOTAL     ACCESS:     282030  HIT:     250130  MISS:      31900
LLC LOAD      ACCESS:      35654  HIT:      27640  MISS:       8014
LLC RFO       ACCESS:      34109  HIT:      29299  MISS:       4810
LLC PREFETCH  ACCESS:     167395  HIT:     148528  MISS:      18867
LLC WRITEBACK ACCESS:      44872  HIT:      44663  MISS:        209
LLC PREFETCH  REQUESTED:          0  ISSUED:          0  USEFUL:       1366  USELESS:      16352
LLC AVERAGE MISS LATENCY: 180.098 cycles
Major fault: 0 Minor fault: 4161
CPU 0 L1D next line prefetcher final stats

DRAM Statistics
 CHANNEL 0
 RQ ROW_BUFFER_HIT:       3302  ROW_BUFFER_MISS:      28384
 DBUS_CONGESTED:      16566
 WQ ROW_BUFFER_HIT:       1111  ROW_BUFFER_MISS:      13138  FULL:          0

 AVG_CONGESTED_CYCLE: 4

CPU 0 Branch Prediction Accuracy: 94.7729% MPKI: 9.72684 Average ROB Occupancy at Mispredict: 54.353

Branch types
NOT_BRANCH: 40695385 81.3908%
BRANCH_DIRECT_JUMP: 422107 0.844214%
BRANCH_INDIRECT: 65 0.00013%
BRANCH_CONDITIONAL: 8105006 16.21%
BRANCH_DIRECT_CALL: 374913 0.749826%
BRANCH_INDIRECT_CALL: 13657 0.027314%
BRANCH_RETURN: 388556 0.777112%
BRANCH_OTHER: 0 0%

