Initialize SIGNATURE TABLE
ST_SET: 1
ST_WAY: 256
ST_TAG_BIT: 16
ST_TAG_MASK: ffff

Initialize PATTERN TABLE
PT_SET: 512
PT_WAY: 4
SIG_DELTA_BIT: 7
C_SIG_BIT: 4
C_DELTA_BIT: 4

Initialize PREFETCH FILTER
FILTER_SET: 1024

*** ChampSim Multicore Out-of-Order Simulator ***

Warmup Instructions: 50000000
Simulation Instructions: 50000000
Number of CPUs: 1
LLC sets: 2048
LLC ways: 16
Off-chip DRAM Size: 4096 MB Channels: 1 Width: 64-bit Data Rate: 3200 MT/s

CPU 0 runs /Users/brandon/Documents/CoursesWi22/CSE240C/Homework1/ChampSim/ipc1_public/client_008.champsimtrace.xz
L1I D-JOLT instruction prefetcher has been constructed!
CPU 0 L1D next line prefetcher
Heartbeat CPU 0 instructions: 10000001 cycles: 3754661 heartbeat IPC: 2.66336 cumulative IPC: 2.66336 (Simulation time: 0 hr 1 min 30 sec) 
Heartbeat CPU 0 instructions: 20000001 cycles: 7531430 heartbeat IPC: 2.64777 cumulative IPC: 2.65554 (Simulation time: 0 hr 3 min 18 sec) 
Heartbeat CPU 0 instructions: 30000000 cycles: 11259557 heartbeat IPC: 2.68231 cumulative IPC: 2.6644 (Simulation time: 0 hr 5 min 7 sec) 
Heartbeat CPU 0 instructions: 40000002 cycles: 15055660 heartbeat IPC: 2.63428 cumulative IPC: 2.65681 (Simulation time: 0 hr 7 min 7 sec) 
Heartbeat CPU 0 instructions: 50000003 cycles: 18849342 heartbeat IPC: 2.63596 cumulative IPC: 2.65261 (Simulation time: 0 hr 9 min 7 sec) 

Warmup complete CPU 0 instructions: 50000003 cycles: 18849342 (Simulation time: 0 hr 9 min 7 sec) 

Heartbeat CPU 0 instructions: 60000000 cycles: 27105044 heartbeat IPC: 1.21128 cumulative IPC: 1.21128 (Simulation time: 0 hr 11 min 4 sec) 
Heartbeat CPU 0 instructions: 70000000 cycles: 35090308 heartbeat IPC: 1.25231 cumulative IPC: 1.23145 (Simulation time: 0 hr 13 min 7 sec) 
Heartbeat CPU 0 instructions: 80000000 cycles: 44198902 heartbeat IPC: 1.09786 cumulative IPC: 1.18345 (Simulation time: 0 hr 14 min 45 sec) 
Heartbeat CPU 0 instructions: 90000001 cycles: 51601933 heartbeat IPC: 1.3508 cumulative IPC: 1.22128 (Simulation time: 0 hr 15 min 57 sec) 
Heartbeat CPU 0 instructions: 100000001 cycles: 59637247 heartbeat IPC: 1.24451 cumulative IPC: 1.22585 (Simulation time: 0 hr 16 min 42 sec) 
Finished CPU 0 instructions: 50000002 cycles: 40787906 cumulative IPC: 1.22585 (Simulation time: 0 hr 16 min 42 sec) 

ChampSim completed all CPUs

Region of Interest Statistics

CPU 0 cumulative IPC: 1.22585 instructions: 50000002 cycles: 40787906
L1D TOTAL     ACCESS:   20482357  HIT:   18853987  MISS:    1628370
L1D LOAD      ACCESS:    8062770  HIT:    7263460  MISS:     799310
L1D RFO       ACCESS:    4814598  HIT:    4705027  MISS:     109571
L1D PREFETCH  ACCESS:    7604989  HIT:    6885500  MISS:     719489
L1D WRITEBACK ACCESS:          0  HIT:          0  MISS:          0
L1D PREFETCH  REQUESTED:    8132081  ISSUED:    7963331  USEFUL:     199778  USELESS:     519715
L1D AVERAGE MISS LATENCY: 32.987 cycles
L1I TOTAL     ACCESS:   15492217  HIT:   13985261  MISS:    1506956
L1I LOAD      ACCESS:    9768139  HIT:    9715884  MISS:      52255
L1I RFO       ACCESS:          0  HIT:          0  MISS:          0
L1I PREFETCH  ACCESS:    5724078  HIT:    4269377  MISS:    1454701
L1I WRITEBACK ACCESS:          0  HIT:          0  MISS:          0
L1I PREFETCH  REQUESTED:    6333751  ISSUED:    6216639  USEFUL:     829762  USELESS:     625041
L1I AVERAGE MISS LATENCY: 17.0105 cycles
L2C TOTAL     ACCESS:    4390171  HIT:    3923889  MISS:     466282
L2C LOAD      ACCESS:     797696  HIT:     624327  MISS:     173369
L2C RFO       ACCESS:     104344  HIT:      18229  MISS:      86115
L2C PREFETCH  ACCESS:    3306125  HIT:    3099867  MISS:     206258
L2C WRITEBACK ACCESS:     182006  HIT:     181466  MISS:        540
L2C PREFETCH  REQUESTED:    3173462  ISSUED:    3148974  USEFUL:      20609  USELESS:     187259
L2C AVERAGE MISS LATENCY: 74.6126 cycles
LLC TOTAL     ACCESS:    1498990  HIT:    1317032  MISS:     181958
LLC LOAD      ACCESS:     173279  HIT:     149751  MISS:      23528
LLC RFO       ACCESS:      86110  HIT:      15713  MISS:      70397
LLC PREFETCH  ACCESS:    1103362  HIT:    1015647  MISS:      87715
LLC WRITEBACK ACCESS:     136239  HIT:     135921  MISS:        318
LLC PREFETCH  REQUESTED:          0  ISSUED:          0  USEFUL:      24988  USELESS:      70405
LLC AVERAGE MISS LATENCY: 166.025 cycles
Major fault: 0 Minor fault: 5306
CPU 0 L1D next line prefetcher final stats

DRAM Statistics
 CHANNEL 0
 RQ ROW_BUFFER_HIT:      51158  ROW_BUFFER_MISS:     130471
 DBUS_CONGESTED:      96075
 WQ ROW_BUFFER_HIT:      23788  ROW_BUFFER_MISS:      65648  FULL:          0

 AVG_CONGESTED_CYCLE: 6

CPU 0 Branch Prediction Accuracy: 98.6482% MPKI: 3.1551 Average ROB Occupancy at Mispredict: 96.6002

Branch types
NOT_BRANCH: 38329598 76.6592%
BRANCH_DIRECT_JUMP: 510116 1.02023%
BRANCH_INDIRECT: 225730 0.45146%
BRANCH_CONDITIONAL: 8366762 16.7335%
BRANCH_DIRECT_CALL: 600748 1.2015%
BRANCH_INDIRECT_CALL: 682990 1.36598%
BRANCH_RETURN: 1283974 2.56795%
BRANCH_OTHER: 0 0%

