Initialize SIGNATURE TABLE
ST_SET: 1
ST_WAY: 256
ST_TAG_BIT: 16
ST_TAG_MASK: ffff

Initialize PATTERN TABLE
PT_SET: 512
PT_WAY: 4
SIG_DELTA_BIT: 7
C_SIG_BIT: 4
C_DELTA_BIT: 4

Initialize PREFETCH FILTER
FILTER_SET: 1024

*** ChampSim Multicore Out-of-Order Simulator ***

Warmup Instructions: 50000000
Simulation Instructions: 50000000
Number of CPUs: 1
LLC sets: 2048
LLC ways: 16
Off-chip DRAM Size: 4096 MB Channels: 1 Width: 64-bit Data Rate: 3200 MT/s

CPU 0 runs /Users/brandon/Documents/CoursesWi22/CSE240C/Homework1/ChampSim/ipc1_public/server_017.champsimtrace.xz
L1I D-JOLT instruction prefetcher has been constructed!
CPU 0 L1D next line prefetcher
Heartbeat CPU 0 instructions: 10000001 cycles: 3622566 heartbeat IPC: 2.76047 cumulative IPC: 2.76047 (Simulation time: 0 hr 1 min 27 sec) 
Heartbeat CPU 0 instructions: 20000000 cycles: 7243409 heartbeat IPC: 2.76179 cumulative IPC: 2.76113 (Simulation time: 0 hr 3 min 12 sec) 
Heartbeat CPU 0 instructions: 30000002 cycles: 10870736 heartbeat IPC: 2.75685 cumulative IPC: 2.7597 (Simulation time: 0 hr 4 min 59 sec) 
Heartbeat CPU 0 instructions: 40000000 cycles: 14493578 heartbeat IPC: 2.76026 cumulative IPC: 2.75984 (Simulation time: 0 hr 6 min 56 sec) 
Heartbeat CPU 0 instructions: 50000001 cycles: 18127385 heartbeat IPC: 2.75194 cumulative IPC: 2.75826 (Simulation time: 0 hr 8 min 52 sec) 

Warmup complete CPU 0 instructions: 50000001 cycles: 18127385 (Simulation time: 0 hr 8 min 52 sec) 

Heartbeat CPU 0 instructions: 60000002 cycles: 35566459 heartbeat IPC: 0.573425 cumulative IPC: 0.573425 (Simulation time: 0 hr 11 min 28 sec) 
Heartbeat CPU 0 instructions: 70000002 cycles: 53107194 heartbeat IPC: 0.570102 cumulative IPC: 0.571758 (Simulation time: 0 hr 14 min 1 sec) 
Heartbeat CPU 0 instructions: 80000000 cycles: 70414297 heartbeat IPC: 0.577797 cumulative IPC: 0.573757 (Simulation time: 0 hr 16 min 8 sec) 
Heartbeat CPU 0 instructions: 90000002 cycles: 93543606 heartbeat IPC: 0.432352 cumulative IPC: 0.53039 (Simulation time: 0 hr 17 min 5 sec) 
Heartbeat CPU 0 instructions: 100000003 cycles: 113456840 heartbeat IPC: 0.502179 cumulative IPC: 0.524497 (Simulation time: 0 hr 17 min 45 sec) 
Finished CPU 0 instructions: 50000002 cycles: 95329455 cumulative IPC: 0.524497 (Simulation time: 0 hr 17 min 45 sec) 

ChampSim completed all CPUs

Region of Interest Statistics

CPU 0 cumulative IPC: 0.524497 instructions: 50000002 cycles: 95329455
L1D TOTAL     ACCESS:   18372287  HIT:   16206772  MISS:    2165515
L1D LOAD      ACCESS:    7022899  HIT:    6278600  MISS:     744299
L1D RFO       ACCESS:    5514821  HIT:    4655621  MISS:     859200
L1D PREFETCH  ACCESS:    5834567  HIT:    5272551  MISS:     562016
L1D WRITEBACK ACCESS:          0  HIT:          0  MISS:          0
L1D PREFETCH  REQUESTED:    7060623  ISSUED:    6871500  USEFUL:     199698  USELESS:     362379
L1D AVERAGE MISS LATENCY: 177.732 cycles
L1I TOTAL     ACCESS:   17451950  HIT:   14436548  MISS:    3015402
L1I LOAD      ACCESS:    9911416  HIT:    9878885  MISS:      32531
L1I RFO       ACCESS:          0  HIT:          0  MISS:          0
L1I PREFETCH  ACCESS:    7540534  HIT:    4557663  MISS:    2982871
L1I WRITEBACK ACCESS:          0  HIT:          0  MISS:          0
L1I PREFETCH  REQUESTED:    8046147  ISSUED:    8013194  USEFUL:    2442279  USELESS:     540605
L1I AVERAGE MISS LATENCY: 18.2746 cycles
L2C TOTAL     ACCESS:    7624286  HIT:    5779291  MISS:    1844995
L2C LOAD      ACCESS:     568639  HIT:     240025  MISS:     328614
L2C RFO       ACCESS:     858712  HIT:      17390  MISS:     841322
L2C PREFETCH  ACCESS:    5074027  HIT:    4402878  MISS:     671149
L2C WRITEBACK ACCESS:    1122908  HIT:    1118998  MISS:       3910
L2C PREFETCH  REQUESTED:    4772355  ISSUED:    4767300  USEFUL:      20757  USELESS:     651124
L2C AVERAGE MISS LATENCY: 212.253 cycles
LLC TOTAL     ACCESS:    4189825  HIT:    2662864  MISS:    1526961
LLC LOAD      ACCESS:     328558  HIT:     172276  MISS:     156282
LLC RFO       ACCESS:     841322  HIT:     122489  MISS:     718833
LLC PREFETCH  ACCESS:    1956743  HIT:    1307430  MISS:     649313
LLC WRITEBACK ACCESS:    1063202  HIT:    1060669  MISS:       2533
LLC PREFETCH  REQUESTED:          0  ISSUED:          0  USEFUL:      48386  USELESS:     599900
LLC AVERAGE MISS LATENCY: 271.872 cycles
Major fault: 0 Minor fault: 24698
CPU 0 L1D next line prefetcher final stats

DRAM Statistics
 CHANNEL 0
 RQ ROW_BUFFER_HIT:     373295  ROW_BUFFER_MISS:    1150904
 DBUS_CONGESTED:    1473931
 WQ ROW_BUFFER_HIT:     244886  ROW_BUFFER_MISS:     633243  FULL:          0

 AVG_CONGESTED_CYCLE: 6

CPU 0 Branch Prediction Accuracy: 99.2833% MPKI: 1.20568 Average ROB Occupancy at Mispredict: 182.237

Branch types
NOT_BRANCH: 41588346 83.1767%
BRANCH_DIRECT_JUMP: 464501 0.929002%
BRANCH_INDIRECT: 45704 0.091408%
BRANCH_CONDITIONAL: 6147408 12.2948%
BRANCH_DIRECT_CALL: 675450 1.3509%
BRANCH_INDIRECT_CALL: 201532 0.403064%
BRANCH_RETURN: 876985 1.75397%
BRANCH_OTHER: 0 0%

