Initialize SIGNATURE TABLE
ST_SET: 1
ST_WAY: 256
ST_TAG_BIT: 16
ST_TAG_MASK: ffff

Initialize PATTERN TABLE
PT_SET: 512
PT_WAY: 4
SIG_DELTA_BIT: 7
C_SIG_BIT: 4
C_DELTA_BIT: 4

Initialize PREFETCH FILTER
FILTER_SET: 1024

*** ChampSim Multicore Out-of-Order Simulator ***

Warmup Instructions: 50000000
Simulation Instructions: 50000000
Number of CPUs: 1
LLC sets: 2048
LLC ways: 16
Off-chip DRAM Size: 4096 MB Channels: 1 Width: 64-bit Data Rate: 3200 MT/s

CPU 0 runs /Users/brandon/Documents/CoursesWi22/CSE240C/Homework1/ChampSim/ipc1_public/server_023.champsimtrace.xz
L1I D-JOLT instruction prefetcher has been constructed!
CPU 0 L1D next line prefetcher
Heartbeat CPU 0 instructions: 10000000 cycles: 3497994 heartbeat IPC: 2.85878 cumulative IPC: 2.85878 (Simulation time: 0 hr 1 min 44 sec) 
Heartbeat CPU 0 instructions: 20000000 cycles: 6994658 heartbeat IPC: 2.85987 cumulative IPC: 2.85932 (Simulation time: 0 hr 3 min 29 sec) 
Heartbeat CPU 0 instructions: 30000001 cycles: 10484386 heartbeat IPC: 2.86555 cumulative IPC: 2.8614 (Simulation time: 0 hr 5 min 19 sec) 
Heartbeat CPU 0 instructions: 40000003 cycles: 13980335 heartbeat IPC: 2.86045 cumulative IPC: 2.86116 (Simulation time: 0 hr 7 min 8 sec) 
Heartbeat CPU 0 instructions: 50000001 cycles: 17477709 heartbeat IPC: 2.85929 cumulative IPC: 2.86079 (Simulation time: 0 hr 8 min 57 sec) 

Warmup complete CPU 0 instructions: 50000001 cycles: 17477709 (Simulation time: 0 hr 8 min 57 sec) 

Heartbeat CPU 0 instructions: 60000002 cycles: 24212876 heartbeat IPC: 1.48474 cumulative IPC: 1.48474 (Simulation time: 0 hr 10 min 49 sec) 
Heartbeat CPU 0 instructions: 70000002 cycles: 31171664 heartbeat IPC: 1.43703 cumulative IPC: 1.4605 (Simulation time: 0 hr 12 min 33 sec) 
Heartbeat CPU 0 instructions: 80000000 cycles: 38035055 heartbeat IPC: 1.45701 cumulative IPC: 1.45933 (Simulation time: 0 hr 14 min 7 sec) 
Heartbeat CPU 0 instructions: 90000000 cycles: 44937553 heartbeat IPC: 1.44875 cumulative IPC: 1.45667 (Simulation time: 0 hr 15 min 32 sec) 
Heartbeat CPU 0 instructions: 100000001 cycles: 51763508 heartbeat IPC: 1.465 cumulative IPC: 1.45833 (Simulation time: 0 hr 16 min 55 sec) 
Finished CPU 0 instructions: 50000000 cycles: 34285799 cumulative IPC: 1.45833 (Simulation time: 0 hr 16 min 55 sec) 

ChampSim completed all CPUs

Region of Interest Statistics

CPU 0 cumulative IPC: 1.45833 instructions: 50000000 cycles: 34285799
L1D TOTAL     ACCESS:   19339714  HIT:   17872919  MISS:    1466795
L1D LOAD      ACCESS:    6839471  HIT:    6178114  MISS:     661357
L1D RFO       ACCESS:    5984164  HIT:    5722909  MISS:     261255
L1D PREFETCH  ACCESS:    6516079  HIT:    5971896  MISS:     544183
L1D WRITEBACK ACCESS:          0  HIT:          0  MISS:          0
L1D PREFETCH  REQUESTED:    6889757  ISSUED:    6767857  USEFUL:     129597  USELESS:     414594
L1D AVERAGE MISS LATENCY: 24.8897 cycles
L1I TOTAL     ACCESS:   15024161  HIT:   12161101  MISS:    2863060
L1I LOAD      ACCESS:    9438014  HIT:    9384494  MISS:      53520
L1I RFO       ACCESS:          0  HIT:          0  MISS:          0
L1I PREFETCH  ACCESS:    5586147  HIT:    2776607  MISS:    2809540
L1I WRITEBACK ACCESS:          0  HIT:          0  MISS:          0
L1I PREFETCH  REQUESTED:    5876087  ISSUED:    5826815  USEFUL:    2391686  USELESS:     417866
L1I AVERAGE MISS LATENCY: 19.5674 cycles
L2C TOTAL     ACCESS:    6049032  HIT:    5268131  MISS:     780901
L2C LOAD      ACCESS:     643912  HIT:     508565  MISS:     135347
L2C RFO       ACCESS:     259437  HIT:     176279  MISS:      83158
L2C PREFETCH  ACCESS:    4646401  HIT:    4088474  MISS:     557927
L2C WRITEBACK ACCESS:     499282  HIT:     494813  MISS:       4469
L2C PREFETCH  REQUESTED:    3865391  ISSUED:    3860991  USEFUL:      14708  USELESS:     543511
L2C AVERAGE MISS LATENCY: 40.171 cycles
LLC TOTAL     ACCESS:    1986732  HIT:    1933562  MISS:      53170
LLC LOAD      ACCESS:     135154  HIT:     128689  MISS:       6465
LLC RFO       ACCESS:      83130  HIT:      65109  MISS:      18021
LLC PREFETCH  ACCESS:    1630109  HIT:    1601744  MISS:      28365
LLC WRITEBACK ACCESS:     138339  HIT:     138020  MISS:        319
LLC PREFETCH  REQUESTED:          0  ISSUED:          0  USEFUL:       2544  USELESS:      25348
LLC AVERAGE MISS LATENCY: 181.356 cycles
Major fault: 0 Minor fault: 2775
CPU 0 L1D next line prefetcher final stats

DRAM Statistics
 CHANNEL 0
 RQ ROW_BUFFER_HIT:      15447  ROW_BUFFER_MISS:      37395
 DBUS_CONGESTED:      31294
 WQ ROW_BUFFER_HIT:       2640  ROW_BUFFER_MISS:      19595  FULL:          0

 AVG_CONGESTED_CYCLE: 6

CPU 0 Branch Prediction Accuracy: 99.6798% MPKI: 0.58608 Average ROB Occupancy at Mispredict: 146.522

Branch types
NOT_BRANCH: 40848339 81.6967%
BRANCH_DIRECT_JUMP: 548373 1.09675%
BRANCH_INDIRECT: 189802 0.379604%
BRANCH_CONDITIONAL: 6372772 12.7455%
BRANCH_DIRECT_CALL: 862207 1.72441%
BRANCH_INDIRECT_CALL: 158149 0.316298%
BRANCH_RETURN: 1020345 2.04069%
BRANCH_OTHER: 0 0%

