Initialize SIGNATURE TABLE
ST_SET: 1
ST_WAY: 256
ST_TAG_BIT: 16
ST_TAG_MASK: ffff

Initialize PATTERN TABLE
PT_SET: 512
PT_WAY: 4
SIG_DELTA_BIT: 7
C_SIG_BIT: 4
C_DELTA_BIT: 4

Initialize PREFETCH FILTER
FILTER_SET: 1024

*** ChampSim Multicore Out-of-Order Simulator ***

Warmup Instructions: 50000000
Simulation Instructions: 50000000
Number of CPUs: 1
LLC sets: 2048
LLC ways: 16
Off-chip DRAM Size: 4096 MB Channels: 1 Width: 64-bit Data Rate: 3200 MT/s

CPU 0 runs /Users/brandon/Documents/CoursesWi22/CSE240C/Homework1/ChampSim/ipc1_public/server_016.champsimtrace.xz
L1I D-JOLT instruction prefetcher has been constructed!
CPU 0 L1D next line prefetcher
Heartbeat CPU 0 instructions: 10000000 cycles: 3496079 heartbeat IPC: 2.86035 cumulative IPC: 2.86035 (Simulation time: 0 hr 1 min 25 sec) 
Heartbeat CPU 0 instructions: 20000000 cycles: 6991955 heartbeat IPC: 2.86051 cumulative IPC: 2.86043 (Simulation time: 0 hr 3 min 5 sec) 
Heartbeat CPU 0 instructions: 30000001 cycles: 10483061 heartbeat IPC: 2.86442 cumulative IPC: 2.86176 (Simulation time: 0 hr 4 min 48 sec) 
Heartbeat CPU 0 instructions: 40000000 cycles: 13780757 heartbeat IPC: 3.03242 cumulative IPC: 2.9026 (Simulation time: 0 hr 5 min 38 sec) 
Heartbeat CPU 0 instructions: 50000002 cycles: 17016222 heartbeat IPC: 3.09075 cumulative IPC: 2.93837 (Simulation time: 0 hr 6 min 10 sec) 

Warmup complete CPU 0 instructions: 50000002 cycles: 17016222 (Simulation time: 0 hr 6 min 10 sec) 

Heartbeat CPU 0 instructions: 60000001 cycles: 24972798 heartbeat IPC: 1.25682 cumulative IPC: 1.25682 (Simulation time: 0 hr 6 min 54 sec) 
Heartbeat CPU 0 instructions: 70000001 cycles: 31746364 heartbeat IPC: 1.47633 cumulative IPC: 1.35776 (Simulation time: 0 hr 8 min 48 sec) 
Heartbeat CPU 0 instructions: 80000001 cycles: 38624329 heartbeat IPC: 1.45392 cumulative IPC: 1.38837 (Simulation time: 0 hr 10 min 41 sec) 
Heartbeat CPU 0 instructions: 90000000 cycles: 45272124 heartbeat IPC: 1.50426 cumulative IPC: 1.41563 (Simulation time: 0 hr 12 min 29 sec) 
Heartbeat CPU 0 instructions: 100000000 cycles: 52048013 heartbeat IPC: 1.47582 cumulative IPC: 1.42727 (Simulation time: 0 hr 14 min 20 sec) 
Finished CPU 0 instructions: 50000002 cycles: 35031792 cumulative IPC: 1.42727 (Simulation time: 0 hr 14 min 20 sec) 

ChampSim completed all CPUs

Region of Interest Statistics

CPU 0 cumulative IPC: 1.42727 instructions: 50000002 cycles: 35031792
L1D TOTAL     ACCESS:   17900947  HIT:   16633653  MISS:    1267294
L1D LOAD      ACCESS:    6495241  HIT:    5921465  MISS:     573776
L1D RFO       ACCESS:    5193174  HIT:    4971102  MISS:     222072
L1D PREFETCH  ACCESS:    6212532  HIT:    5741086  MISS:     471446
L1D WRITEBACK ACCESS:          0  HIT:          0  MISS:          0
L1D PREFETCH  REQUESTED:    6538409  ISSUED:    6432264  USEFUL:     112416  USELESS:     359048
L1D AVERAGE MISS LATENCY: 24.64 cycles
L1I TOTAL     ACCESS:   14509436  HIT:   12091784  MISS:    2417652
L1I LOAD      ACCESS:    9867938  HIT:    9832366  MISS:      35572
L1I RFO       ACCESS:          0  HIT:          0  MISS:          0
L1I PREFETCH  ACCESS:    4641498  HIT:    2259418  MISS:    2382080
L1I WRITEBACK ACCESS:          0  HIT:          0  MISS:          0
L1I PREFETCH  REQUESTED:    4917951  ISSUED:    4873061  USEFUL:    2072833  USELESS:     309239
L1I AVERAGE MISS LATENCY: 19.9532 cycles
L2C TOTAL     ACCESS:    5134809  HIT:    4429050  MISS:     705759
L2C LOAD      ACCESS:     551947  HIT:     430032  MISS:     121915
L2C RFO       ACCESS:     220325  HIT:     152032  MISS:      68293
L2C PREFETCH  ACCESS:    3934304  HIT:    3422532  MISS:     511772
L2C WRITEBACK ACCESS:     428233  HIT:     424454  MISS:       3779
L2C PREFETCH  REQUESTED:    3444809  ISSUED:    3441727  USEFUL:      11228  USELESS:     499548
L2C AVERAGE MISS LATENCY: 38.6566 cycles
LLC TOTAL     ACCESS:    1749038  HIT:    1709812  MISS:      39226
LLC LOAD      ACCESS:     121668  HIT:     117157  MISS:       4511
LLC RFO       ACCESS:      68292  HIT:      54749  MISS:      13543
LLC PREFETCH  ACCESS:    1436682  HIT:    1415698  MISS:      20984
LLC WRITEBACK ACCESS:     122396  HIT:     122208  MISS:        188
LLC PREFETCH  REQUESTED:          0  ISSUED:          0  USEFUL:       1731  USELESS:      18900
LLC AVERAGE MISS LATENCY: 177.09 cycles
Major fault: 0 Minor fault: 2373
CPU 0 L1D next line prefetcher final stats

DRAM Statistics
 CHANNEL 0
 RQ ROW_BUFFER_HIT:      11749  ROW_BUFFER_MISS:      27274
 DBUS_CONGESTED:      23347
 WQ ROW_BUFFER_HIT:       1555  ROW_BUFFER_MISS:      15002  FULL:          0

 AVG_CONGESTED_CYCLE: 6

CPU 0 Branch Prediction Accuracy: 99.7225% MPKI: 0.50376 Average ROB Occupancy at Mispredict: 133.552

Branch types
NOT_BRANCH: 40924076 81.8481%
BRANCH_DIRECT_JUMP: 487046 0.974092%
BRANCH_INDIRECT: 169159 0.338318%
BRANCH_CONDITIONAL: 6640844 13.2817%
BRANCH_DIRECT_CALL: 755592 1.51118%
BRANCH_INDIRECT_CALL: 133962 0.267924%
BRANCH_RETURN: 889572 1.77914%
BRANCH_OTHER: 0 0%

