Initialize SIGNATURE TABLE
ST_SET: 1
ST_WAY: 256
ST_TAG_BIT: 16
ST_TAG_MASK: ffff

Initialize PATTERN TABLE
PT_SET: 512
PT_WAY: 4
SIG_DELTA_BIT: 7
C_SIG_BIT: 4
C_DELTA_BIT: 4

Initialize PREFETCH FILTER
FILTER_SET: 1024

*** ChampSim Multicore Out-of-Order Simulator ***

Warmup Instructions: 50000000
Simulation Instructions: 50000000
Number of CPUs: 1
LLC sets: 2048
LLC ways: 16
Off-chip DRAM Size: 4096 MB Channels: 1 Width: 64-bit Data Rate: 3200 MT/s

CPU 0 runs /Users/brandon/Documents/CoursesWi22/CSE240C/Homework1/ChampSim/ipc1_public/server_019.champsimtrace.xz
L1I D-JOLT instruction prefetcher has been constructed!
CPU 0 L1D next line prefetcher
Heartbeat CPU 0 instructions: 10000002 cycles: 3622802 heartbeat IPC: 2.76029 cumulative IPC: 2.76029 (Simulation time: 0 hr 1 min 28 sec) 
Heartbeat CPU 0 instructions: 20000003 cycles: 7246991 heartbeat IPC: 2.75924 cumulative IPC: 2.75977 (Simulation time: 0 hr 3 min 15 sec) 
Heartbeat CPU 0 instructions: 30000002 cycles: 10870197 heartbeat IPC: 2.75999 cumulative IPC: 2.75984 (Simulation time: 0 hr 5 min 3 sec) 
Heartbeat CPU 0 instructions: 40000002 cycles: 14505342 heartbeat IPC: 2.75092 cumulative IPC: 2.7576 (Simulation time: 0 hr 7 min 0 sec) 
Heartbeat CPU 0 instructions: 50000001 cycles: 18128817 heartbeat IPC: 2.75978 cumulative IPC: 2.75804 (Simulation time: 0 hr 8 min 56 sec) 

Warmup complete CPU 0 instructions: 50000001 cycles: 18128817 (Simulation time: 0 hr 8 min 56 sec) 

Heartbeat CPU 0 instructions: 60000000 cycles: 37900231 heartbeat IPC: 0.505781 cumulative IPC: 0.505781 (Simulation time: 0 hr 11 min 38 sec) 
Heartbeat CPU 0 instructions: 70000002 cycles: 61417434 heartbeat IPC: 0.425221 cumulative IPC: 0.462015 (Simulation time: 0 hr 14 min 8 sec) 
Heartbeat CPU 0 instructions: 80000001 cycles: 81973442 heartbeat IPC: 0.486476 cumulative IPC: 0.469891 (Simulation time: 0 hr 16 min 10 sec) 
Heartbeat CPU 0 instructions: 90000002 cycles: 99569622 heartbeat IPC: 0.568305 cumulative IPC: 0.491154 (Simulation time: 0 hr 17 min 8 sec) 
Heartbeat CPU 0 instructions: 100000002 cycles: 117104333 heartbeat IPC: 0.570297 cumulative IPC: 0.505175 (Simulation time: 0 hr 17 min 47 sec) 
Finished CPU 0 instructions: 50000001 cycles: 98975516 cumulative IPC: 0.505175 (Simulation time: 0 hr 17 min 47 sec) 

ChampSim completed all CPUs

Region of Interest Statistics

CPU 0 cumulative IPC: 0.505175 instructions: 50000001 cycles: 98975516
L1D TOTAL     ACCESS:   18299870  HIT:   16076378  MISS:    2223492
L1D LOAD      ACCESS:    6975797  HIT:    6222867  MISS:     752930
L1D RFO       ACCESS:    5513041  HIT:    4611151  MISS:     901890
L1D PREFETCH  ACCESS:    5811032  HIT:    5242360  MISS:     568672
L1D WRITEBACK ACCESS:          0  HIT:          0  MISS:          0
L1D PREFETCH  REQUESTED:    7012895  ISSUED:    6827088  USEFUL:     199438  USELESS:     369142
L1D AVERAGE MISS LATENCY: 188.671 cycles
L1I TOTAL     ACCESS:   17728847  HIT:   14505105  MISS:    3223742
L1I LOAD      ACCESS:    9884753  HIT:    9845513  MISS:      39240
L1I RFO       ACCESS:          0  HIT:          0  MISS:          0
L1I PREFETCH  ACCESS:    7844094  HIT:    4659592  MISS:    3184502
L1I WRITEBACK ACCESS:          0  HIT:          0  MISS:          0
L1I PREFETCH  REQUESTED:    8452743  ISSUED:    8397972  USEFUL:    2456849  USELESS:     727588
L1I AVERAGE MISS LATENCY: 18.9229 cycles
L2C TOTAL     ACCESS:    8058010  HIT:    6162265  MISS:    1895745
L2C LOAD      ACCESS:     583770  HIT:     248098  MISS:     335672
L2C RFO       ACCESS:     901418  HIT:      18269  MISS:     883149
L2C PREFETCH  ACCESS:    5398212  HIT:    4723455  MISS:     674757
L2C WRITEBACK ACCESS:    1174610  HIT:    1172443  MISS:       2167
L2C PREFETCH  REQUESTED:    4982797  ISSUED:    4978537  USEFUL:      21438  USELESS:     651896
L2C AVERAGE MISS LATENCY: 225.729 cycles
LLC TOTAL     ACCESS:    4387671  HIT:    2765226  MISS:    1622445
LLC LOAD      ACCESS:     335588  HIT:     167789  MISS:     167799
LLC RFO       ACCESS:     883147  HIT:     115088  MISS:     768059
LLC PREFETCH  ACCESS:    2057839  HIT:    1373202  MISS:     684637
LLC WRITEBACK ACCESS:    1111097  HIT:    1109147  MISS:       1950
LLC PREFETCH  REQUESTED:          0  ISSUED:          0  USEFUL:      53752  USELESS:     629793
LLC AVERAGE MISS LATENCY: 281.208 cycles
Major fault: 0 Minor fault: 25694
CPU 0 L1D next line prefetcher final stats

DRAM Statistics
 CHANNEL 0
 RQ ROW_BUFFER_HIT:     398188  ROW_BUFFER_MISS:    1222086
 DBUS_CONGESTED:    1597416
 WQ ROW_BUFFER_HIT:     258450  ROW_BUFFER_MISS:     681018  FULL:          0

 AVG_CONGESTED_CYCLE: 6

CPU 0 Branch Prediction Accuracy: 99.2186% MPKI: 1.32192 Average ROB Occupancy at Mispredict: 179.489

Branch types
NOT_BRANCH: 41540785 83.0816%
BRANCH_DIRECT_JUMP: 462384 0.924768%
BRANCH_INDIRECT: 45460 0.09092%
BRANCH_CONDITIONAL: 6209281 12.4186%
BRANCH_DIRECT_CALL: 666241 1.33248%
BRANCH_INDIRECT_CALL: 204728 0.409456%
BRANCH_RETURN: 870978 1.74196%
BRANCH_OTHER: 0 0%

