Initialize SIGNATURE TABLE
ST_SET: 1
ST_WAY: 256
ST_TAG_BIT: 16
ST_TAG_MASK: ffff

Initialize PATTERN TABLE
PT_SET: 512
PT_WAY: 4
SIG_DELTA_BIT: 7
C_SIG_BIT: 4
C_DELTA_BIT: 4

Initialize PREFETCH FILTER
FILTER_SET: 1024

*** ChampSim Multicore Out-of-Order Simulator ***

Warmup Instructions: 50000000
Simulation Instructions: 50000000
Number of CPUs: 1
LLC sets: 2048
LLC ways: 16
Off-chip DRAM Size: 4096 MB Channels: 1 Width: 64-bit Data Rate: 3200 MT/s

CPU 0 runs /Users/brandon/Documents/CoursesWi22/CSE240C/Homework1/ChampSim/ipc1_public/server_039.champsimtrace.xz
L1I D-JOLT instruction prefetcher has been constructed!
CPU 0 L1D next line prefetcher
Heartbeat CPU 0 instructions: 10000003 cycles: 3451632 heartbeat IPC: 2.89718 cumulative IPC: 2.89718 (Simulation time: 0 hr 1 min 49 sec) 
Heartbeat CPU 0 instructions: 20000002 cycles: 6896292 heartbeat IPC: 2.90304 cumulative IPC: 2.90011 (Simulation time: 0 hr 3 min 38 sec) 
Heartbeat CPU 0 instructions: 30000001 cycles: 10342754 heartbeat IPC: 2.90153 cumulative IPC: 2.90058 (Simulation time: 0 hr 5 min 32 sec) 
Heartbeat CPU 0 instructions: 40000002 cycles: 13784622 heartbeat IPC: 2.9054 cumulative IPC: 2.90178 (Simulation time: 0 hr 7 min 26 sec) 
Heartbeat CPU 0 instructions: 50000001 cycles: 17225859 heartbeat IPC: 2.90593 cumulative IPC: 2.90261 (Simulation time: 0 hr 9 min 19 sec) 

Warmup complete CPU 0 instructions: 50000001 cycles: 17225859 (Simulation time: 0 hr 9 min 19 sec) 

Heartbeat CPU 0 instructions: 60000000 cycles: 23000160 heartbeat IPC: 1.73181 cumulative IPC: 1.73181 (Simulation time: 0 hr 11 min 10 sec) 
Heartbeat CPU 0 instructions: 70000000 cycles: 28772194 heartbeat IPC: 1.73249 cumulative IPC: 1.73215 (Simulation time: 0 hr 12 min 54 sec) 
Heartbeat CPU 0 instructions: 80000000 cycles: 34539554 heartbeat IPC: 1.7339 cumulative IPC: 1.73273 (Simulation time: 0 hr 14 min 27 sec) 
Heartbeat CPU 0 instructions: 90000001 cycles: 40310633 heartbeat IPC: 1.73278 cumulative IPC: 1.73274 (Simulation time: 0 hr 15 min 58 sec) 
Heartbeat CPU 0 instructions: 100000002 cycles: 46088912 heartbeat IPC: 1.73062 cumulative IPC: 1.73232 (Simulation time: 0 hr 17 min 18 sec) 
Finished CPU 0 instructions: 50000001 cycles: 28863053 cumulative IPC: 1.73232 (Simulation time: 0 hr 17 min 18 sec) 

ChampSim completed all CPUs

Region of Interest Statistics

CPU 0 cumulative IPC: 1.73232 instructions: 50000001 cycles: 28863053
L1D TOTAL     ACCESS:   19881949  HIT:   19387233  MISS:     494716
L1D LOAD      ACCESS:    6489684  HIT:    6268084  MISS:     221600
L1D RFO       ACCESS:    7088918  HIT:    7022052  MISS:      66866
L1D PREFETCH  ACCESS:    6303347  HIT:    6097097  MISS:     206250
L1D WRITEBACK ACCESS:          0  HIT:          0  MISS:          0
L1D PREFETCH  REQUESTED:    6505528  ISSUED:    6372366  USEFUL:      50106  USELESS:     156148
L1D AVERAGE MISS LATENCY: 15.0892 cycles
L1I TOTAL     ACCESS:   19395002  HIT:   14187196  MISS:    5207806
L1I LOAD      ACCESS:    9295766  HIT:    9207783  MISS:      87983
L1I RFO       ACCESS:          0  HIT:          0  MISS:          0
L1I PREFETCH  ACCESS:   10099236  HIT:    4979413  MISS:    5119823
L1I WRITEBACK ACCESS:          0  HIT:          0  MISS:          0
L1I PREFETCH  REQUESTED:   10817400  ISSUED:   10490658  USEFUL:    4181345  USELESS:     938475
L1I AVERAGE MISS LATENCY: 14.6026 cycles
L2C TOTAL     ACCESS:    8188614  HIT:    8188539  MISS:         75
L2C LOAD      ACCESS:     290422  HIT:     290419  MISS:          3
L2C RFO       ACCESS:      66752  HIT:      66752  MISS:          0
L2C PREFETCH  ACCESS:    7651376  HIT:    7651305  MISS:         71
L2C WRITEBACK ACCESS:     180064  HIT:     180063  MISS:          1
L2C PREFETCH  REQUESTED:    5559977  ISSUED:    5551012  USEFUL:          1  USELESS:          1
L2C AVERAGE MISS LATENCY: 43.04 cycles
LLC TOTAL     ACCESS:     868620  HIT:     868191  MISS:        429
LLC LOAD      ACCESS:          3  HIT:          2  MISS:          1
LLC RFO       ACCESS:          0  HIT:          0  MISS:          0
LLC PREFETCH  ACCESS:     868615  HIT:     868187  MISS:        428
LLC WRITEBACK ACCESS:          2  HIT:          2  MISS:          0
LLC PREFETCH  REQUESTED:          0  ISSUED:          0  USEFUL:          2  USELESS:          0
LLC AVERAGE MISS LATENCY: 178.326 cycles
Major fault: 0 Minor fault: 357
CPU 0 L1D next line prefetcher final stats

DRAM Statistics
 CHANNEL 0
 RQ ROW_BUFFER_HIT:         49  ROW_BUFFER_MISS:        380
 DBUS_CONGESTED:         46
 WQ ROW_BUFFER_HIT:          0  ROW_BUFFER_MISS:          0  FULL:          0

 AVG_CONGESTED_CYCLE: 5

CPU 0 Branch Prediction Accuracy: 99.9091% MPKI: 0.1547 Average ROB Occupancy at Mispredict: 304.184

Branch types
NOT_BRANCH: 41494970 82.9899%
BRANCH_DIRECT_JUMP: 491308 0.982616%
BRANCH_INDIRECT: 0 0%
BRANCH_CONDITIONAL: 5595255 11.1905%
BRANCH_DIRECT_CALL: 1028408 2.05682%
BRANCH_INDIRECT_CALL: 180756 0.361512%
BRANCH_RETURN: 1209171 2.41834%
BRANCH_OTHER: 0 0%

