Initialize SIGNATURE TABLE
ST_SET: 1
ST_WAY: 256
ST_TAG_BIT: 16
ST_TAG_MASK: ffff

Initialize PATTERN TABLE
PT_SET: 512
PT_WAY: 4
SIG_DELTA_BIT: 7
C_SIG_BIT: 4
C_DELTA_BIT: 4

Initialize PREFETCH FILTER
FILTER_SET: 1024

*** ChampSim Multicore Out-of-Order Simulator ***

Warmup Instructions: 50000000
Simulation Instructions: 50000000
Number of CPUs: 1
LLC sets: 2048
LLC ways: 16
Off-chip DRAM Size: 4096 MB Channels: 1 Width: 64-bit Data Rate: 3200 MT/s

CPU 0 runs /Users/brandon/Documents/CoursesWi22/CSE240C/Homework1/ChampSim/ipc1_public/server_036.champsimtrace.xz
L1I D-JOLT instruction prefetcher has been constructed!
CPU 0 L1D next line prefetcher
Heartbeat CPU 0 instructions: 10000000 cycles: 3458981 heartbeat IPC: 2.89102 cumulative IPC: 2.89102 (Simulation time: 0 hr 1 min 47 sec) 
Heartbeat CPU 0 instructions: 20000000 cycles: 6924770 heartbeat IPC: 2.88535 cumulative IPC: 2.88818 (Simulation time: 0 hr 3 min 35 sec) 
Heartbeat CPU 0 instructions: 30000003 cycles: 10432904 heartbeat IPC: 2.85052 cumulative IPC: 2.87552 (Simulation time: 0 hr 5 min 26 sec) 
Heartbeat CPU 0 instructions: 40000000 cycles: 13895405 heartbeat IPC: 2.88808 cumulative IPC: 2.87865 (Simulation time: 0 hr 7 min 18 sec) 
Heartbeat CPU 0 instructions: 50000002 cycles: 17357107 heartbeat IPC: 2.88875 cumulative IPC: 2.88066 (Simulation time: 0 hr 9 min 11 sec) 

Warmup complete CPU 0 instructions: 50000002 cycles: 17357107 (Simulation time: 0 hr 9 min 11 sec) 

Heartbeat CPU 0 instructions: 60000000 cycles: 22946008 heartbeat IPC: 1.78926 cumulative IPC: 1.78926 (Simulation time: 0 hr 10 min 53 sec) 
Heartbeat CPU 0 instructions: 70000001 cycles: 28487462 heartbeat IPC: 1.80458 cumulative IPC: 1.79689 (Simulation time: 0 hr 12 min 29 sec) 
Heartbeat CPU 0 instructions: 80000001 cycles: 34063846 heartbeat IPC: 1.79328 cumulative IPC: 1.79568 (Simulation time: 0 hr 13 min 58 sec) 
Heartbeat CPU 0 instructions: 90000002 cycles: 39600380 heartbeat IPC: 1.80618 cumulative IPC: 1.7983 (Simulation time: 0 hr 15 min 26 sec) 
Heartbeat CPU 0 instructions: 100000001 cycles: 45130162 heartbeat IPC: 1.80839 cumulative IPC: 1.80031 (Simulation time: 0 hr 16 min 43 sec) 
Finished CPU 0 instructions: 50000003 cycles: 27773056 cumulative IPC: 1.80031 (Simulation time: 0 hr 16 min 43 sec) 

ChampSim completed all CPUs

Region of Interest Statistics

CPU 0 cumulative IPC: 1.80031 instructions: 50000003 cycles: 27773056
L1D TOTAL     ACCESS:   20468417  HIT:   20408191  MISS:      60226
L1D LOAD      ACCESS:    6664366  HIT:    6629521  MISS:      34845
L1D RFO       ACCESS:    7343384  HIT:    7336157  MISS:       7227
L1D PREFETCH  ACCESS:    6460667  HIT:    6442513  MISS:      18154
L1D WRITEBACK ACCESS:          0  HIT:          0  MISS:          0
L1D PREFETCH  REQUESTED:    6665331  ISSUED:    6493448  USEFUL:       5463  USELESS:      12692
L1D AVERAGE MISS LATENCY: 18.0054 cycles
L1I TOTAL     ACCESS:   17172879  HIT:   12487568  MISS:    4685311
L1I LOAD      ACCESS:    8950834  HIT:    8950202  MISS:        632
L1I RFO       ACCESS:          0  HIT:          0  MISS:          0
L1I PREFETCH  ACCESS:    8222045  HIT:    3537366  MISS:    4684679
L1I WRITEBACK ACCESS:          0  HIT:          0  MISS:          0
L1I PREFETCH  REQUESTED:    8492876  ISSUED:    8444808  USEFUL:    3959220  USELESS:     725409
L1I AVERAGE MISS LATENCY: 14.7441 cycles
L2C TOTAL     ACCESS:    7135782  HIT:    7133521  MISS:       2261
L2C LOAD      ACCESS:      35283  HIT:      34799  MISS:        484
L2C RFO       ACCESS:       7219  HIT:       7165  MISS:         54
L2C PREFETCH  ACCESS:    7077648  HIT:    7075932  MISS:       1716
L2C WRITEBACK ACCESS:      15632  HIT:      15625  MISS:          7
L2C PREFETCH  REQUESTED:    6133424  ISSUED:    6121508  USEFUL:        253  USELESS:       1014
L2C AVERAGE MISS LATENCY: 159.939 cycles
LLC TOTAL     ACCESS:     969779  HIT:     966753  MISS:       3026
LLC LOAD      ACCESS:        482  HIT:        187  MISS:        295
LLC RFO       ACCESS:         54  HIT:         27  MISS:         27
LLC PREFETCH  ACCESS:     968281  HIT:     965584  MISS:       2697
LLC WRITEBACK ACCESS:        962  HIT:        955  MISS:          7
LLC PREFETCH  REQUESTED:          0  ISSUED:          0  USEFUL:        113  USELESS:        737
LLC AVERAGE MISS LATENCY: 273.474 cycles
Major fault: 0 Minor fault: 1933
CPU 0 L1D next line prefetcher final stats

DRAM Statistics
 CHANNEL 0
 RQ ROW_BUFFER_HIT:        601  ROW_BUFFER_MISS:       2418
 DBUS_CONGESTED:       1847
 WQ ROW_BUFFER_HIT:        324  ROW_BUFFER_MISS:       1802  FULL:          0

 AVG_CONGESTED_CYCLE: 6

CPU 0 Branch Prediction Accuracy: 99.8717% MPKI: 0.21174 Average ROB Occupancy at Mispredict: 233.298

Branch types
NOT_BRANCH: 41748435 83.4969%
BRANCH_DIRECT_JUMP: 468563 0.937126%
BRANCH_INDIRECT: 0 0%
BRANCH_CONDITIONAL: 5599754 11.1995%
BRANCH_DIRECT_CALL: 885105 1.77021%
BRANCH_INDIRECT_CALL: 206338 0.412676%
BRANCH_RETURN: 1091467 2.18293%
BRANCH_OTHER: 0 0%

