Initialize SIGNATURE TABLE
ST_SET: 1
ST_WAY: 256
ST_TAG_BIT: 16
ST_TAG_MASK: ffff

Initialize PATTERN TABLE
PT_SET: 512
PT_WAY: 4
SIG_DELTA_BIT: 7
C_SIG_BIT: 4
C_DELTA_BIT: 4

Initialize PREFETCH FILTER
FILTER_SET: 1024

*** ChampSim Multicore Out-of-Order Simulator ***

Warmup Instructions: 50000000
Simulation Instructions: 50000000
Number of CPUs: 1
LLC sets: 2048
LLC ways: 16
Off-chip DRAM Size: 4096 MB Channels: 1 Width: 64-bit Data Rate: 3200 MT/s

CPU 0 runs /Users/brandon/Documents/CoursesWi22/CSE240C/Homework1/ChampSim/ipc1_public/server_014.champsimtrace.xz
L1I D-JOLT instruction prefetcher has been constructed!
CPU 0 L1D next line prefetcher
Heartbeat CPU 0 instructions: 10000003 cycles: 3519548 heartbeat IPC: 2.84127 cumulative IPC: 2.84127 (Simulation time: 0 hr 1 min 24 sec) 
Heartbeat CPU 0 instructions: 20000000 cycles: 7106430 heartbeat IPC: 2.78794 cumulative IPC: 2.81435 (Simulation time: 0 hr 3 min 7 sec) 
Heartbeat CPU 0 instructions: 30000001 cycles: 10647956 heartbeat IPC: 2.82364 cumulative IPC: 2.81744 (Simulation time: 0 hr 4 min 53 sec) 
Heartbeat CPU 0 instructions: 40000003 cycles: 14196178 heartbeat IPC: 2.81831 cumulative IPC: 2.81766 (Simulation time: 0 hr 6 min 48 sec) 
Heartbeat CPU 0 instructions: 50000000 cycles: 17744852 heartbeat IPC: 2.81795 cumulative IPC: 2.81772 (Simulation time: 0 hr 8 min 44 sec) 

Warmup complete CPU 0 instructions: 50000001 cycles: 17744853 (Simulation time: 0 hr 8 min 44 sec) 

Heartbeat CPU 0 instructions: 60000000 cycles: 24032115 heartbeat IPC: 1.59052 cumulative IPC: 1.59052 (Simulation time: 0 hr 10 min 41 sec) 
Heartbeat CPU 0 instructions: 70000003 cycles: 30324553 heartbeat IPC: 1.58921 cumulative IPC: 1.58986 (Simulation time: 0 hr 12 min 35 sec) 
*** Reached end of trace for Core: 0 Repeating trace: /Users/brandon/Documents/CoursesWi22/CSE240C/Homework1/ChampSim/ipc1_public/server_014.champsimtrace.xz
Heartbeat CPU 0 instructions: 80000001 cycles: 36909319 heartbeat IPC: 1.51866 cumulative IPC: 1.5654 (Simulation time: 0 hr 14 min 30 sec) 
Heartbeat CPU 0 instructions: 90000003 cycles: 44431905 heartbeat IPC: 1.32933 cumulative IPC: 1.49885 (Simulation time: 0 hr 16 min 3 sec) 
Heartbeat CPU 0 instructions: 100000001 cycles: 50935692 heartbeat IPC: 1.53757 cumulative IPC: 1.50644 (Simulation time: 0 hr 16 min 55 sec) 
Finished CPU 0 instructions: 50000000 cycles: 33190839 cumulative IPC: 1.50644 (Simulation time: 0 hr 16 min 55 sec) 

ChampSim completed all CPUs

Region of Interest Statistics

CPU 0 cumulative IPC: 1.50644 instructions: 50000000 cycles: 33190839
L1D TOTAL     ACCESS:   21627814  HIT:   21556950  MISS:      70864
L1D LOAD      ACCESS:    6673927  HIT:    6647002  MISS:      26925
L1D RFO       ACCESS:    8412858  HIT:    8380790  MISS:      32068
L1D PREFETCH  ACCESS:    6541029  HIT:    6529158  MISS:      11871
L1D WRITEBACK ACCESS:          0  HIT:          0  MISS:          0
L1D PREFETCH  REQUESTED:    6678370  ISSUED:    6568696  USEFUL:       3314  USELESS:       8557
L1D AVERAGE MISS LATENCY: 222.523 cycles
L1I TOTAL     ACCESS:   19481817  HIT:   15392375  MISS:    4089442
L1I LOAD      ACCESS:    9791237  HIT:    9777092  MISS:      14145
L1I RFO       ACCESS:          0  HIT:          0  MISS:          0
L1I PREFETCH  ACCESS:    9690580  HIT:    5615283  MISS:    4075297
L1I WRITEBACK ACCESS:          0  HIT:          0  MISS:          0
L1I PREFETCH  REQUESTED:   10034140  ISSUED:    9982213  USEFUL:    2753833  USELESS:    1321439
L1I AVERAGE MISS LATENCY: 14.9118 cycles
L2C TOTAL     ACCESS:    5944431  HIT:    5872444  MISS:      71987
L2C LOAD      ACCESS:      34652  HIT:      14617  MISS:      20035
L2C RFO       ACCESS:      32023  HIT:       1092  MISS:      30931
L2C PREFETCH  ACCESS:    5839387  HIT:    5818382  MISS:      21005
L2C WRITEBACK ACCESS:      38369  HIT:      38353  MISS:         16
L2C PREFETCH  REQUESTED:    4554912  ISSUED:    4540902  USEFUL:       1886  USELESS:      19153
L2C AVERAGE MISS LATENCY: 248.797 cycles
LLC TOTAL     ACCESS:    1064626  HIT:     998844  MISS:      65782
LLC LOAD      ACCESS:      18897  HIT:       5595  MISS:      13302
LLC RFO       ACCESS:      30931  HIT:       5260  MISS:      25671
LLC PREFETCH  ACCESS:     979978  HIT:     953273  MISS:      26705
LLC WRITEBACK ACCESS:      34820  HIT:      34716  MISS:        104
LLC PREFETCH  REQUESTED:          0  ISSUED:          0  USEFUL:       4708  USELESS:      23041
LLC AVERAGE MISS LATENCY: 305.245 cycles
Major fault: 0 Minor fault: 1918
CPU 0 L1D next line prefetcher final stats

DRAM Statistics
 CHANNEL 0
 RQ ROW_BUFFER_HIT:      28586  ROW_BUFFER_MISS:      37082
 DBUS_CONGESTED:      64893
 WQ ROW_BUFFER_HIT:       8414  ROW_BUFFER_MISS:      23684  FULL:          0

 AVG_CONGESTED_CYCLE: 6

CPU 0 Branch Prediction Accuracy: 99.7719% MPKI: 0.38824 Average ROB Occupancy at Mispredict: 154.234

Branch types
NOT_BRANCH: 41489016 82.978%
BRANCH_DIRECT_JUMP: 449417 0.898834%
BRANCH_INDIRECT: 2330 0.00466%
BRANCH_CONDITIONAL: 5470016 10.94%
BRANCH_DIRECT_CALL: 1172188 2.34438%
BRANCH_INDIRECT_CALL: 122383 0.244766%
BRANCH_RETURN: 1294555 2.58911%
BRANCH_OTHER: 0 0%

