Initialize SIGNATURE TABLE
ST_SET: 1
ST_WAY: 256
ST_TAG_BIT: 16
ST_TAG_MASK: ffff

Initialize PATTERN TABLE
PT_SET: 512
PT_WAY: 4
SIG_DELTA_BIT: 7
C_SIG_BIT: 4
C_DELTA_BIT: 4

Initialize PREFETCH FILTER
FILTER_SET: 1024

*** ChampSim Multicore Out-of-Order Simulator ***

Warmup Instructions: 50000000
Simulation Instructions: 50000000
Number of CPUs: 1
LLC sets: 2048
LLC ways: 16
Off-chip DRAM Size: 4096 MB Channels: 1 Width: 64-bit Data Rate: 3200 MT/s

CPU 0 runs /Users/brandon/Documents/CoursesWi22/CSE240C/Homework1/ChampSim/ipc1_public/spec_perlbench_001.champsimtrace.xz
L1I D-JOLT instruction prefetcher has been constructed!
CPU 0 L1D next line prefetcher
Heartbeat CPU 0 instructions: 10000000 cycles: 3276047 heartbeat IPC: 3.05246 cumulative IPC: 3.05246 (Simulation time: 0 hr 1 min 35 sec) 
Heartbeat CPU 0 instructions: 20000000 cycles: 6541513 heartbeat IPC: 3.06235 cumulative IPC: 3.0574 (Simulation time: 0 hr 3 min 16 sec) 
Heartbeat CPU 0 instructions: 30000002 cycles: 9859462 heartbeat IPC: 3.01391 cumulative IPC: 3.04276 (Simulation time: 0 hr 5 min 4 sec) 
Heartbeat CPU 0 instructions: 40000002 cycles: 13115571 heartbeat IPC: 3.07115 cumulative IPC: 3.04981 (Simulation time: 0 hr 6 min 44 sec) 
Heartbeat CPU 0 instructions: 50000001 cycles: 16389951 heartbeat IPC: 3.05401 cumulative IPC: 3.05065 (Simulation time: 0 hr 8 min 21 sec) 

Warmup complete CPU 0 instructions: 50000001 cycles: 16389951 (Simulation time: 0 hr 8 min 21 sec) 

Heartbeat CPU 0 instructions: 60000001 cycles: 24736137 heartbeat IPC: 1.19815 cumulative IPC: 1.19815 (Simulation time: 0 hr 9 min 51 sec) 
Heartbeat CPU 0 instructions: 70000003 cycles: 32946507 heartbeat IPC: 1.21797 cumulative IPC: 1.20798 (Simulation time: 0 hr 11 min 30 sec) 
Heartbeat CPU 0 instructions: 80000000 cycles: 41396505 heartbeat IPC: 1.18343 cumulative IPC: 1.19969 (Simulation time: 0 hr 12 min 58 sec) 
Heartbeat CPU 0 instructions: 90000000 cycles: 47158870 heartbeat IPC: 1.7354 cumulative IPC: 1.30001 (Simulation time: 0 hr 13 min 59 sec) 
Heartbeat CPU 0 instructions: 100000002 cycles: 53068837 heartbeat IPC: 1.69206 cumulative IPC: 1.36318 (Simulation time: 0 hr 14 min 59 sec) 
Finished CPU 0 instructions: 50000001 cycles: 36678886 cumulative IPC: 1.36318 (Simulation time: 0 hr 14 min 59 sec) 

ChampSim completed all CPUs

Region of Interest Statistics

CPU 0 cumulative IPC: 1.36318 instructions: 50000001 cycles: 36678886
L1D TOTAL     ACCESS:   20681510  HIT:   20266430  MISS:     415080
L1D LOAD      ACCESS:    7170652  HIT:    6956918  MISS:     213734
L1D RFO       ACCESS:    6542241  HIT:    6523719  MISS:      18522
L1D PREFETCH  ACCESS:    6968617  HIT:    6785793  MISS:     182824
L1D WRITEBACK ACCESS:          0  HIT:          0  MISS:          0
L1D PREFETCH  REQUESTED:    7186399  ISSUED:    7069904  USEFUL:      55153  USELESS:     127666
L1D AVERAGE MISS LATENCY: 59.3452 cycles
L1I TOTAL     ACCESS:   14878357  HIT:   13652136  MISS:    1226221
L1I LOAD      ACCESS:    9173681  HIT:    9110636  MISS:      63045
L1I RFO       ACCESS:          0  HIT:          0  MISS:          0
L1I PREFETCH  ACCESS:    5704676  HIT:    4541500  MISS:    1163176
L1I WRITEBACK ACCESS:          0  HIT:          0  MISS:          0
L1I PREFETCH  REQUESTED:    6063326  ISSUED:    5828983  USEFUL:     536038  USELESS:     627153
L1I AVERAGE MISS LATENCY: 16.4586 cycles
L2C TOTAL     ACCESS:    2332379  HIT:    2162291  MISS:     170088
L2C LOAD      ACCESS:     267717  HIT:     184499  MISS:      83218
L2C RFO       ACCESS:      18272  HIT:      12643  MISS:       5629
L2C PREFETCH  ACCESS:    1967433  HIT:    1886616  MISS:      80817
L2C WRITEBACK ACCESS:      78957  HIT:      78533  MISS:        424
L2C PREFETCH  REQUESTED:    1267456  ISSUED:    1267238  USEFUL:       7047  USELESS:      73830
L2C AVERAGE MISS LATENCY: 118.835 cycles
LLC TOTAL     ACCESS:     425231  HIT:     280240  MISS:     144991
LLC LOAD      ACCESS:      83212  HIT:      32435  MISS:      50777
LLC RFO       ACCESS:       5629  HIT:       2601  MISS:       3028
LLC PREFETCH  ACCESS:     310200  HIT:     219516  MISS:      90684
LLC WRITEBACK ACCESS:      26190  HIT:      25688  MISS:        502
LLC PREFETCH  REQUESTED:          0  ISSUED:          0  USEFUL:      13905  USELESS:      76644
LLC AVERAGE MISS LATENCY: 159.617 cycles
Major fault: 0 Minor fault: 6366
CPU 0 L1D next line prefetcher final stats

DRAM Statistics
 CHANNEL 0
 RQ ROW_BUFFER_HIT:      33052  ROW_BUFFER_MISS:     111436
 DBUS_CONGESTED:      56478
 WQ ROW_BUFFER_HIT:       4410  ROW_BUFFER_MISS:      13114  FULL:          0

 AVG_CONGESTED_CYCLE: 4

CPU 0 Branch Prediction Accuracy: 98.7418% MPKI: 2.47758 Average ROB Occupancy at Mispredict: 79.0262

Branch types
NOT_BRANCH: 40154100 80.3082%
BRANCH_DIRECT_JUMP: 817094 1.63419%
BRANCH_INDIRECT: 303787 0.607574%
BRANCH_CONDITIONAL: 7492103 14.9842%
BRANCH_DIRECT_CALL: 471777 0.943554%
BRANCH_INDIRECT_CALL: 144546 0.289092%
BRANCH_RETURN: 616324 1.23265%
BRANCH_OTHER: 0 0%

