Initialize SIGNATURE TABLE
ST_SET: 1
ST_WAY: 256
ST_TAG_BIT: 16
ST_TAG_MASK: ffff

Initialize PATTERN TABLE
PT_SET: 512
PT_WAY: 4
SIG_DELTA_BIT: 7
C_SIG_BIT: 4
C_DELTA_BIT: 4

Initialize PREFETCH FILTER
FILTER_SET: 1024

*** ChampSim Multicore Out-of-Order Simulator ***

Warmup Instructions: 50000000
Simulation Instructions: 50000000
Number of CPUs: 1
LLC sets: 2048
LLC ways: 16
Off-chip DRAM Size: 4096 MB Channels: 1 Width: 64-bit Data Rate: 3200 MT/s

CPU 0 runs /Users/brandon/Documents/CoursesWi22/CSE240C/Homework1/ChampSim/ipc1_public/spec_x264_001.champsimtrace.xz
L1I D-JOLT instruction prefetcher has been constructed!
CPU 0 L1D next line prefetcher
Heartbeat CPU 0 instructions: 10000002 cycles: 3059608 heartbeat IPC: 3.26839 cumulative IPC: 3.26839 (Simulation time: 0 hr 1 min 10 sec) 
Heartbeat CPU 0 instructions: 20000002 cycles: 6109301 heartbeat IPC: 3.27902 cumulative IPC: 3.2737 (Simulation time: 0 hr 2 min 18 sec) 
Heartbeat CPU 0 instructions: 30000002 cycles: 9144522 heartbeat IPC: 3.29465 cumulative IPC: 3.28065 (Simulation time: 0 hr 3 min 28 sec) 
Heartbeat CPU 0 instructions: 40000000 cycles: 12188550 heartbeat IPC: 3.28512 cumulative IPC: 3.28177 (Simulation time: 0 hr 4 min 38 sec) 
Heartbeat CPU 0 instructions: 50000000 cycles: 15231343 heartbeat IPC: 3.28645 cumulative IPC: 3.2827 (Simulation time: 0 hr 5 min 51 sec) 

Warmup complete CPU 0 instructions: 50000004 cycles: 15231344 (Simulation time: 0 hr 5 min 51 sec) 

Heartbeat CPU 0 instructions: 60000001 cycles: 21161160 heartbeat IPC: 1.68639 cumulative IPC: 1.68639 (Simulation time: 0 hr 6 min 32 sec) 
Heartbeat CPU 0 instructions: 70000000 cycles: 27072420 heartbeat IPC: 1.69169 cumulative IPC: 1.68904 (Simulation time: 0 hr 7 min 13 sec) 
Heartbeat CPU 0 instructions: 80000003 cycles: 33129381 heartbeat IPC: 1.65099 cumulative IPC: 1.67616 (Simulation time: 0 hr 7 min 54 sec) 
Heartbeat CPU 0 instructions: 90000000 cycles: 39167288 heartbeat IPC: 1.6562 cumulative IPC: 1.67113 (Simulation time: 0 hr 8 min 34 sec) 
Heartbeat CPU 0 instructions: 100000002 cycles: 45065463 heartbeat IPC: 1.69544 cumulative IPC: 1.67593 (Simulation time: 0 hr 9 min 15 sec) 
Finished CPU 0 instructions: 50000002 cycles: 29834120 cumulative IPC: 1.67593 (Simulation time: 0 hr 9 min 15 sec) 

ChampSim completed all CPUs

Region of Interest Statistics

CPU 0 cumulative IPC: 1.67593 instructions: 50000002 cycles: 29834120
L1D TOTAL     ACCESS:   12970176  HIT:   12809229  MISS:     160947
L1D LOAD      ACCESS:    5096290  HIT:    5041216  MISS:      55074
L1D RFO       ACCESS:    2883308  HIT:    2848973  MISS:      34335
L1D PREFETCH  ACCESS:    4990578  HIT:    4919040  MISS:      71538
L1D WRITEBACK ACCESS:          0  HIT:          0  MISS:          0
L1D PREFETCH  REQUESTED:    5113174  ISSUED:    5045444  USEFUL:      25729  USELESS:      45619
L1D AVERAGE MISS LATENCY: 40.1144 cycles
L1I TOTAL     ACCESS:    9525500  HIT:    9119338  MISS:     406162
L1I LOAD      ACCESS:    8037865  HIT:    8030646  MISS:       7219
L1I RFO       ACCESS:          0  HIT:          0  MISS:          0
L1I PREFETCH  ACCESS:    1487635  HIT:    1088692  MISS:     398943
L1I WRITEBACK ACCESS:          0  HIT:          0  MISS:          0
L1I PREFETCH  REQUESTED:    1599170  ISSUED:    1578778  USEFUL:     301514  USELESS:      97465
L1I AVERAGE MISS LATENCY: 14.9743 cycles
L2C TOTAL     ACCESS:     868630  HIT:     829135  MISS:      39495
L2C LOAD      ACCESS:      60104  HIT:      54604  MISS:       5500
L2C RFO       ACCESS:      34146  HIT:      22042  MISS:      12104
L2C PREFETCH  ACCESS:     731274  HIT:     709472  MISS:      21802
L2C WRITEBACK ACCESS:      43106  HIT:      43017  MISS:         89
L2C PREFETCH  REQUESTED:     656203  ISSUED:     651397  USEFUL:       9052  USELESS:      13015
L2C AVERAGE MISS LATENCY: 102.603 cycles
LLC TOTAL     ACCESS:     125440  HIT:      96379  MISS:      29061
LLC LOAD      ACCESS:       5499  HIT:       3401  MISS:       2098
LLC RFO       ACCESS:      12104  HIT:        491  MISS:      11613
LLC PREFETCH  ACCESS:      94273  HIT:      79010  MISS:      15263
LLC WRITEBACK ACCESS:      13564  HIT:      13477  MISS:         87
LLC PREFETCH  REQUESTED:          0  ISSUED:          0  USEFUL:       1803  USELESS:      14076
LLC AVERAGE MISS LATENCY: 161.822 cycles
Major fault: 0 Minor fault: 1285
CPU 0 L1D next line prefetcher final stats

DRAM Statistics
 CHANNEL 0
 RQ ROW_BUFFER_HIT:       9920  ROW_BUFFER_MISS:      19053
 DBUS_CONGESTED:      12503
 WQ ROW_BUFFER_HIT:       2811  ROW_BUFFER_MISS:       9805  FULL:          0

 AVG_CONGESTED_CYCLE: 6

CPU 0 Branch Prediction Accuracy: 97.1633% MPKI: 1.73704 Average ROB Occupancy at Mispredict: 43.0797

Branch types
NOT_BRANCH: 46937921 93.8758%
BRANCH_DIRECT_JUMP: 170816 0.341632%
BRANCH_INDIRECT: 0 0%
BRANCH_CONDITIONAL: 2532774 5.06555%
BRANCH_DIRECT_CALL: 114227 0.228454%
BRANCH_INDIRECT_CALL: 64863 0.129726%
BRANCH_RETURN: 179089 0.358178%
BRANCH_OTHER: 0 0%

