Initialize SIGNATURE TABLE
ST_SET: 1
ST_WAY: 256
ST_TAG_BIT: 16
ST_TAG_MASK: ffff

Initialize PATTERN TABLE
PT_SET: 512
PT_WAY: 4
SIG_DELTA_BIT: 7
C_SIG_BIT: 4
C_DELTA_BIT: 4

Initialize PREFETCH FILTER
FILTER_SET: 1024

*** ChampSim Multicore Out-of-Order Simulator ***

Warmup Instructions: 50000000
Simulation Instructions: 50000000
Number of CPUs: 1
LLC sets: 2048
LLC ways: 16
Off-chip DRAM Size: 4096 MB Channels: 1 Width: 64-bit Data Rate: 3200 MT/s

CPU 0 runs /Users/brandon/Documents/CoursesWi22/CSE240C/Homework1/ChampSim/ipc1_public/client_008.champsimtrace.xz
L1I D-JOLT instruction prefetcher has been constructed!
CPU 0 L1D next line prefetcher
Heartbeat CPU 0 instructions: 10000001 cycles: 3754709 heartbeat IPC: 2.66332 cumulative IPC: 2.66332 (Simulation time: 0 hr 1 min 41 sec) 
Heartbeat CPU 0 instructions: 20000001 cycles: 7531321 heartbeat IPC: 2.64788 cumulative IPC: 2.65558 (Simulation time: 0 hr 3 min 42 sec) 
Heartbeat CPU 0 instructions: 30000000 cycles: 11258956 heartbeat IPC: 2.68267 cumulative IPC: 2.66455 (Simulation time: 0 hr 5 min 45 sec) 
Heartbeat CPU 0 instructions: 40000002 cycles: 15054404 heartbeat IPC: 2.63474 cumulative IPC: 2.65703 (Simulation time: 0 hr 7 min 53 sec) 
Heartbeat CPU 0 instructions: 50000003 cycles: 18847388 heartbeat IPC: 2.63645 cumulative IPC: 2.65289 (Simulation time: 0 hr 10 min 2 sec) 

Warmup complete CPU 0 instructions: 50000003 cycles: 18847388 (Simulation time: 0 hr 10 min 2 sec) 

Heartbeat CPU 0 instructions: 60000000 cycles: 27130765 heartbeat IPC: 1.20724 cumulative IPC: 1.20724 (Simulation time: 0 hr 12 min 6 sec) 
Heartbeat CPU 0 instructions: 70000000 cycles: 35120026 heartbeat IPC: 1.25168 cumulative IPC: 1.22906 (Simulation time: 0 hr 14 min 21 sec) 
Heartbeat CPU 0 instructions: 80000001 cycles: 44228697 heartbeat IPC: 1.09786 cumulative IPC: 1.18197 (Simulation time: 0 hr 16 min 7 sec) 
Heartbeat CPU 0 instructions: 90000001 cycles: 51636213 heartbeat IPC: 1.34998 cumulative IPC: 1.21993 (Simulation time: 0 hr 17 min 23 sec) 
Heartbeat CPU 0 instructions: 100000001 cycles: 59676226 heartbeat IPC: 1.24378 cumulative IPC: 1.22462 (Simulation time: 0 hr 18 min 11 sec) 
Finished CPU 0 instructions: 50000002 cycles: 40828839 cumulative IPC: 1.22462 (Simulation time: 0 hr 18 min 11 sec) 

ChampSim completed all CPUs

Region of Interest Statistics

CPU 0 cumulative IPC: 1.22462 instructions: 50000002 cycles: 40828839
L1D TOTAL     ACCESS:   20484681  HIT:   18856267  MISS:    1628414
L1D LOAD      ACCESS:    8064430  HIT:    7264891  MISS:     799539
L1D RFO       ACCESS:    4814128  HIT:    4704591  MISS:     109537
L1D PREFETCH  ACCESS:    7606123  HIT:    6886785  MISS:     719338
L1D WRITEBACK ACCESS:          0  HIT:          0  MISS:          0
L1D PREFETCH  REQUESTED:    8133782  ISSUED:    7964994  USEFUL:     199574  USELESS:     519768
L1D AVERAGE MISS LATENCY: 32.9177 cycles
L1I TOTAL     ACCESS:   15365027  HIT:   13901560  MISS:    1463467
L1I LOAD      ACCESS:    9768368  HIT:    9712944  MISS:      55424
L1I RFO       ACCESS:          0  HIT:          0  MISS:          0
L1I PREFETCH  ACCESS:    5596659  HIT:    4188616  MISS:    1408043
L1I WRITEBACK ACCESS:          0  HIT:          0  MISS:          0
L1I PREFETCH  REQUESTED:    6166878  ISSUED:    6098383  USEFUL:     821001  USELESS:     587136
L1I AVERAGE MISS LATENCY: 17.0177 cycles
L2C TOTAL     ACCESS:    4372067  HIT:    3911081  MISS:     460986
L2C LOAD      ACCESS:     801656  HIT:     626962  MISS:     174694
L2C RFO       ACCESS:     104327  HIT:      18195  MISS:      86132
L2C PREFETCH  ACCESS:    3284093  HIT:    3084440  MISS:     199653
L2C WRITEBACK ACCESS:     181991  HIT:     181484  MISS:        507
L2C PREFETCH  REQUESTED:    3225810  ISSUED:    3197938  USEFUL:      21074  USELESS:     179699
L2C AVERAGE MISS LATENCY: 74.9844 cycles
LLC TOTAL     ACCESS:    1474592  HIT:    1292420  MISS:     182172
LLC LOAD      ACCESS:     174586  HIT:     150796  MISS:      23790
LLC RFO       ACCESS:      86128  HIT:      15768  MISS:      70360
LLC PREFETCH  ACCESS:    1077755  HIT:     990079  MISS:      87676
LLC WRITEBACK ACCESS:     136123  HIT:     135777  MISS:        346
LLC PREFETCH  REQUESTED:          0  ISSUED:          0  USEFUL:      25071  USELESS:      69954
LLC AVERAGE MISS LATENCY: 166.018 cycles
Major fault: 0 Minor fault: 5306
CPU 0 L1D next line prefetcher final stats

DRAM Statistics
 CHANNEL 0
 RQ ROW_BUFFER_HIT:      51213  ROW_BUFFER_MISS:     130602
 DBUS_CONGESTED:      96625
 WQ ROW_BUFFER_HIT:      23942  ROW_BUFFER_MISS:      65697  FULL:          0

 AVG_CONGESTED_CYCLE: 6

CPU 0 Branch Prediction Accuracy: 98.6482% MPKI: 3.1551 Average ROB Occupancy at Mispredict: 96.3779

Branch types
NOT_BRANCH: 38329598 76.6592%
BRANCH_DIRECT_JUMP: 510116 1.02023%
BRANCH_INDIRECT: 225730 0.45146%
BRANCH_CONDITIONAL: 8366762 16.7335%
BRANCH_DIRECT_CALL: 600748 1.2015%
BRANCH_INDIRECT_CALL: 682990 1.36598%
BRANCH_RETURN: 1283974 2.56795%
BRANCH_OTHER: 0 0%

