Initialize SIGNATURE TABLE
ST_SET: 1
ST_WAY: 256
ST_TAG_BIT: 16
ST_TAG_MASK: ffff

Initialize PATTERN TABLE
PT_SET: 512
PT_WAY: 4
SIG_DELTA_BIT: 7
C_SIG_BIT: 4
C_DELTA_BIT: 4

Initialize PREFETCH FILTER
FILTER_SET: 1024

*** ChampSim Multicore Out-of-Order Simulator ***

Warmup Instructions: 50000000
Simulation Instructions: 50000000
Number of CPUs: 1
LLC sets: 2048
LLC ways: 16
Off-chip DRAM Size: 4096 MB Channels: 1 Width: 64-bit Data Rate: 3200 MT/s

CPU 0 runs /Users/brandon/Documents/CoursesWi22/CSE240C/Homework1/ChampSim/ipc1_public/client_007.champsimtrace.xz
L1I D-JOLT instruction prefetcher has been constructed!
CPU 0 L1D next line prefetcher
Heartbeat CPU 0 instructions: 10000001 cycles: 3642267 heartbeat IPC: 2.74554 cumulative IPC: 2.74554 (Simulation time: 0 hr 1 min 29 sec) 
Heartbeat CPU 0 instructions: 20000003 cycles: 7034811 heartbeat IPC: 2.94764 cumulative IPC: 2.843 (Simulation time: 0 hr 3 min 8 sec) 
Heartbeat CPU 0 instructions: 30000000 cycles: 10907605 heartbeat IPC: 2.58211 cumulative IPC: 2.75037 (Simulation time: 0 hr 5 min 6 sec) 
Heartbeat CPU 0 instructions: 40000003 cycles: 15067672 heartbeat IPC: 2.40381 cumulative IPC: 2.65469 (Simulation time: 0 hr 7 min 5 sec) 
Heartbeat CPU 0 instructions: 50000002 cycles: 18472975 heartbeat IPC: 2.9366 cumulative IPC: 2.70666 (Simulation time: 0 hr 8 min 55 sec) 

Warmup complete CPU 0 instructions: 50000002 cycles: 18472975 (Simulation time: 0 hr 8 min 55 sec) 

Heartbeat CPU 0 instructions: 60000003 cycles: 25366734 heartbeat IPC: 1.45059 cumulative IPC: 1.45059 (Simulation time: 0 hr 10 min 48 sec) 
Heartbeat CPU 0 instructions: 70000003 cycles: 34237078 heartbeat IPC: 1.12735 cumulative IPC: 1.26871 (Simulation time: 0 hr 12 min 48 sec) 
Heartbeat CPU 0 instructions: 80000002 cycles: 39594559 heartbeat IPC: 1.86655 cumulative IPC: 1.42035 (Simulation time: 0 hr 14 min 7 sec) 
Heartbeat CPU 0 instructions: 90000002 cycles: 47225692 heartbeat IPC: 1.31042 cumulative IPC: 1.39117 (Simulation time: 0 hr 15 min 57 sec) 
Heartbeat CPU 0 instructions: 100000002 cycles: 56141524 heartbeat IPC: 1.1216 cumulative IPC: 1.32737 (Simulation time: 0 hr 17 min 17 sec) 
Finished CPU 0 instructions: 50000000 cycles: 37668549 cumulative IPC: 1.32737 (Simulation time: 0 hr 17 min 17 sec) 

ChampSim completed all CPUs

Region of Interest Statistics

CPU 0 cumulative IPC: 1.32737 instructions: 50000000 cycles: 37668549
L1D TOTAL     ACCESS:   21199837  HIT:   20030749  MISS:    1169088
L1D LOAD      ACCESS:    8370259  HIT:    7831282  MISS:     538977
L1D RFO       ACCESS:    4868935  HIT:    4777912  MISS:      91023
L1D PREFETCH  ACCESS:    7960643  HIT:    7421555  MISS:     539088
L1D WRITEBACK ACCESS:          0  HIT:          0  MISS:          0
L1D PREFETCH  REQUESTED:    8422172  ISSUED:    8178682  USEFUL:     158553  USELESS:     380549
L1D AVERAGE MISS LATENCY: 34.4796 cycles
L1I TOTAL     ACCESS:   12629923  HIT:   11468715  MISS:    1161208
L1I LOAD      ACCESS:    9117712  HIT:    9058876  MISS:      58836
L1I RFO       ACCESS:          0  HIT:          0  MISS:          0
L1I PREFETCH  ACCESS:    3512211  HIT:    2409839  MISS:    1102372
L1I WRITEBACK ACCESS:          0  HIT:          0  MISS:          0
L1I PREFETCH  REQUESTED:    3663855  ISSUED:    3615168  USEFUL:     838604  USELESS:     263830
L1I AVERAGE MISS LATENCY: 16.3776 cycles
L2C TOTAL     ACCESS:    3508933  HIT:    3303162  MISS:     205771
L2C LOAD      ACCESS:     568621  HIT:     497892  MISS:      70729
L2C RFO       ACCESS:      89481  HIT:      47831  MISS:      41650
L2C PREFETCH  ACCESS:    2523174  HIT:    2429970  MISS:      93204
L2C WRITEBACK ACCESS:     327657  HIT:     327469  MISS:        188
L2C PREFETCH  REQUESTED:    2519860  ISSUED:    2513063  USEFUL:      10088  USELESS:      82680
L2C AVERAGE MISS LATENCY: 124.662 cycles
LLC TOTAL     ACCESS:     892773  HIT:     724662  MISS:     168111
LLC LOAD      ACCESS:      70634  HIT:      34972  MISS:      35662
LLC RFO       ACCESS:      41650  HIT:       7148  MISS:      34502
LLC PREFETCH  ACCESS:     706080  HIT:     608423  MISS:      97657
LLC WRITEBACK ACCESS:      74409  HIT:      74119  MISS:        290
LLC PREFETCH  REQUESTED:          0  ISSUED:          0  USEFUL:      18917  USELESS:      79729
LLC AVERAGE MISS LATENCY: 180.858 cycles
Major fault: 0 Minor fault: 4412
CPU 0 L1D next line prefetcher final stats

DRAM Statistics
 CHANNEL 0
 RQ ROW_BUFFER_HIT:      34827  ROW_BUFFER_MISS:     132985
 DBUS_CONGESTED:      93332
 WQ ROW_BUFFER_HIT:      12894  ROW_BUFFER_MISS:      44725  FULL:          0

 AVG_CONGESTED_CYCLE: 5

CPU 0 Branch Prediction Accuracy: 98.8607% MPKI: 1.8623 Average ROB Occupancy at Mispredict: 112.888

Branch types
NOT_BRANCH: 41826773 83.6535%
BRANCH_DIRECT_JUMP: 735330 1.47066%
BRANCH_INDIRECT: 269194 0.538388%
BRANCH_CONDITIONAL: 5957947 11.9159%
BRANCH_DIRECT_CALL: 368758 0.737516%
BRANCH_INDIRECT_CALL: 226975 0.45395%
BRANCH_RETURN: 614696 1.22939%
BRANCH_OTHER: 0 0%

