Initialize SIGNATURE TABLE
ST_SET: 1
ST_WAY: 256
ST_TAG_BIT: 16
ST_TAG_MASK: ffff

Initialize PATTERN TABLE
PT_SET: 512
PT_WAY: 4
SIG_DELTA_BIT: 7
C_SIG_BIT: 4
C_DELTA_BIT: 4

Initialize PREFETCH FILTER
FILTER_SET: 1024

*** ChampSim Multicore Out-of-Order Simulator ***

Warmup Instructions: 50000000
Simulation Instructions: 50000000
Number of CPUs: 1
LLC sets: 2048
LLC ways: 16
Off-chip DRAM Size: 4096 MB Channels: 1 Width: 64-bit Data Rate: 3200 MT/s

CPU 0 runs /Users/brandon/Documents/CoursesWi22/CSE240C/Homework1/ChampSim/ipc1_public/client_005.champsimtrace.xz
L1I D-JOLT instruction prefetcher has been constructed!
CPU 0 L1D next line prefetcher
Heartbeat CPU 0 instructions: 10000001 cycles: 3291594 heartbeat IPC: 3.03804 cumulative IPC: 3.03804 (Simulation time: 0 hr 1 min 29 sec) 
Heartbeat CPU 0 instructions: 20000002 cycles: 6698294 heartbeat IPC: 2.93539 cumulative IPC: 2.98584 (Simulation time: 0 hr 3 min 19 sec) 
Heartbeat CPU 0 instructions: 30000001 cycles: 10391625 heartbeat IPC: 2.70758 cumulative IPC: 2.88694 (Simulation time: 0 hr 5 min 25 sec) 
Heartbeat CPU 0 instructions: 40000000 cycles: 14069555 heartbeat IPC: 2.71892 cumulative IPC: 2.84302 (Simulation time: 0 hr 7 min 35 sec) 
Heartbeat CPU 0 instructions: 50000001 cycles: 17343285 heartbeat IPC: 3.05462 cumulative IPC: 2.88296 (Simulation time: 0 hr 9 min 28 sec) 

Warmup complete CPU 0 instructions: 50000001 cycles: 17343285 (Simulation time: 0 hr 9 min 28 sec) 

Heartbeat CPU 0 instructions: 60000002 cycles: 25525099 heartbeat IPC: 1.22222 cumulative IPC: 1.22222 (Simulation time: 0 hr 11 min 8 sec) 
Heartbeat CPU 0 instructions: 70000003 cycles: 33019118 heartbeat IPC: 1.3344 cumulative IPC: 1.27585 (Simulation time: 0 hr 12 min 52 sec) 
Heartbeat CPU 0 instructions: 80000001 cycles: 39900668 heartbeat IPC: 1.45316 cumulative IPC: 1.32994 (Simulation time: 0 hr 14 min 52 sec) 
Heartbeat CPU 0 instructions: 90000002 cycles: 49467178 heartbeat IPC: 1.04531 cumulative IPC: 1.24518 (Simulation time: 0 hr 16 min 50 sec) 
Heartbeat CPU 0 instructions: 100000002 cycles: 57359672 heartbeat IPC: 1.26703 cumulative IPC: 1.24949 (Simulation time: 0 hr 17 min 47 sec) 
Finished CPU 0 instructions: 50000001 cycles: 40016387 cumulative IPC: 1.24949 (Simulation time: 0 hr 17 min 47 sec) 

ChampSim completed all CPUs

Region of Interest Statistics

CPU 0 cumulative IPC: 1.24949 instructions: 50000001 cycles: 40016387
L1D TOTAL     ACCESS:   19677819  HIT:   19142006  MISS:     535813
L1D LOAD      ACCESS:    6668177  HIT:    6496488  MISS:     171689
L1D RFO       ACCESS:    6793219  HIT:    6608658  MISS:     184561
L1D PREFETCH  ACCESS:    6216423  HIT:    6036860  MISS:     179563
L1D WRITEBACK ACCESS:          0  HIT:          0  MISS:          0
L1D PREFETCH  REQUESTED:    6692043  ISSUED:    6322110  USEFUL:      59416  USELESS:     120035
L1D AVERAGE MISS LATENCY: 94.5949 cycles
L1I TOTAL     ACCESS:   17859868  HIT:   15214359  MISS:    2645509
L1I LOAD      ACCESS:    9378220  HIT:    9189615  MISS:     188605
L1I RFO       ACCESS:          0  HIT:          0  MISS:          0
L1I PREFETCH  ACCESS:    8481648  HIT:    6024744  MISS:    2456904
L1I WRITEBACK ACCESS:          0  HIT:          0  MISS:          0
L1I PREFETCH  REQUESTED:    9050163  ISSUED:    8689629  USEFUL:     953961  USELESS:    1502897
L1I AVERAGE MISS LATENCY: 16.5406 cycles
L2C TOTAL     ACCESS:    4504782  HIT:    4110905  MISS:     393877
L2C LOAD      ACCESS:     327858  HIT:     219282  MISS:     108576
L2C RFO       ACCESS:     180860  HIT:      30964  MISS:     149896
L2C PREFETCH  ACCESS:    3743005  HIT:    3608700  MISS:     134305
L2C WRITEBACK ACCESS:     253059  HIT:     251959  MISS:       1100
L2C PREFETCH  REQUESTED:    2035643  ISSUED:    2035478  USEFUL:      19681  USELESS:     113979
L2C AVERAGE MISS LATENCY: 125.27 cycles
LLC TOTAL     ACCESS:     931893  HIT:     632464  MISS:     299429
LLC LOAD      ACCESS:     108561  HIT:      60319  MISS:      48242
LLC RFO       ACCESS:     149894  HIT:      15853  MISS:     134041
LLC PREFETCH  ACCESS:     473016  HIT:     356690  MISS:     116326
LLC WRITEBACK ACCESS:     200422  HIT:     199602  MISS:        820
LLC PREFETCH  REQUESTED:          0  ISSUED:          0  USEFUL:      26868  USELESS:      88537
LLC AVERAGE MISS LATENCY: 165.781 cycles
Major fault: 0 Minor fault: 6090
CPU 0 L1D next line prefetcher final stats

DRAM Statistics
 CHANNEL 0
 RQ ROW_BUFFER_HIT:      94924  ROW_BUFFER_MISS:     203680
 DBUS_CONGESTED:     231064
 WQ ROW_BUFFER_HIT:      54059  ROW_BUFFER_MISS:     128397  FULL:          0

 AVG_CONGESTED_CYCLE: 6

CPU 0 Branch Prediction Accuracy: 97.8666% MPKI: 3.9013 Average ROB Occupancy at Mispredict: 85.202

Branch types
NOT_BRANCH: 40856330 81.7127%
BRANCH_DIRECT_JUMP: 484667 0.969334%
BRANCH_INDIRECT: 85086 0.170172%
BRANCH_CONDITIONAL: 6230887 12.4618%
BRANCH_DIRECT_CALL: 1028917 2.05783%
BRANCH_INDIRECT_CALL: 141825 0.28365%
BRANCH_RETURN: 1171986 2.34397%
BRANCH_OTHER: 0 0%

