Initialize SIGNATURE TABLE
ST_SET: 1
ST_WAY: 256
ST_TAG_BIT: 16
ST_TAG_MASK: ffff

Initialize PATTERN TABLE
PT_SET: 512
PT_WAY: 4
SIG_DELTA_BIT: 7
C_SIG_BIT: 4
C_DELTA_BIT: 4

Initialize PREFETCH FILTER
FILTER_SET: 1024

*** ChampSim Multicore Out-of-Order Simulator ***

Warmup Instructions: 50000000
Simulation Instructions: 50000000
Number of CPUs: 1
LLC sets: 2048
LLC ways: 16
Off-chip DRAM Size: 4096 MB Channels: 1 Width: 64-bit Data Rate: 3200 MT/s

CPU 0 runs /Users/brandon/Documents/CoursesWi22/CSE240C/Homework1/ChampSim/ipc1_public/client_006.champsimtrace.xz
L1I D-JOLT instruction prefetcher has been constructed!
CPU 0 L1D next line prefetcher
Heartbeat CPU 0 instructions: 10000003 cycles: 4267498 heartbeat IPC: 2.34329 cumulative IPC: 2.34329 (Simulation time: 0 hr 1 min 42 sec) 
Heartbeat CPU 0 instructions: 20000000 cycles: 8307755 heartbeat IPC: 2.47509 cumulative IPC: 2.40739 (Simulation time: 0 hr 3 min 38 sec) 
Heartbeat CPU 0 instructions: 30000003 cycles: 11371821 heartbeat IPC: 3.26364 cumulative IPC: 2.6381 (Simulation time: 0 hr 5 min 15 sec) 
Heartbeat CPU 0 instructions: 40000000 cycles: 14717687 heartbeat IPC: 2.98876 cumulative IPC: 2.71782 (Simulation time: 0 hr 7 min 2 sec) 
Heartbeat CPU 0 instructions: 50000003 cycles: 18822710 heartbeat IPC: 2.43604 cumulative IPC: 2.65637 (Simulation time: 0 hr 9 min 4 sec) 

Warmup complete CPU 0 instructions: 50000003 cycles: 18822710 (Simulation time: 0 hr 9 min 4 sec) 

Heartbeat CPU 0 instructions: 60000001 cycles: 26691843 heartbeat IPC: 1.27079 cumulative IPC: 1.27079 (Simulation time: 0 hr 10 min 39 sec) 
Heartbeat CPU 0 instructions: 70000003 cycles: 36410013 heartbeat IPC: 1.029 cumulative IPC: 1.13718 (Simulation time: 0 hr 12 min 19 sec) 
Heartbeat CPU 0 instructions: 80000002 cycles: 44731218 heartbeat IPC: 1.20175 cumulative IPC: 1.15792 (Simulation time: 0 hr 13 min 51 sec) 
Heartbeat CPU 0 instructions: 90000003 cycles: 52558957 heartbeat IPC: 1.27751 cumulative IPC: 1.18567 (Simulation time: 0 hr 15 min 13 sec) 
Heartbeat CPU 0 instructions: 100000001 cycles: 60727070 heartbeat IPC: 1.22427 cumulative IPC: 1.19319 (Simulation time: 0 hr 16 min 42 sec) 
Finished CPU 0 instructions: 50000002 cycles: 41904361 cumulative IPC: 1.19319 (Simulation time: 0 hr 16 min 42 sec) 

ChampSim completed all CPUs

Region of Interest Statistics

CPU 0 cumulative IPC: 1.19319 instructions: 50000002 cycles: 41904361
L1D TOTAL     ACCESS:   16584766  HIT:   15857636  MISS:     727130
L1D LOAD      ACCESS:    6361611  HIT:    5954791  MISS:     406820
L1D RFO       ACCESS:    4332393  HIT:    4289801  MISS:      42592
L1D PREFETCH  ACCESS:    5890762  HIT:    5613044  MISS:     277718
L1D WRITEBACK ACCESS:          0  HIT:          0  MISS:          0
L1D PREFETCH  REQUESTED:    6403677  ISSUED:    6222758  USEFUL:     116707  USELESS:     160885
L1D AVERAGE MISS LATENCY: 81.9509 cycles
L1I TOTAL     ACCESS:   13486687  HIT:   12196806  MISS:    1289881
L1I LOAD      ACCESS:    8475120  HIT:    8459378  MISS:      15742
L1I RFO       ACCESS:          0  HIT:          0  MISS:          0
L1I PREFETCH  ACCESS:    5011567  HIT:    3737428  MISS:    1274139
L1I WRITEBACK ACCESS:          0  HIT:          0  MISS:          0
L1I PREFETCH  REQUESTED:    5273566  ISSUED:    5154678  USEFUL:     838011  USELESS:     436023
L1I AVERAGE MISS LATENCY: 21.5491 cycles
L2C TOTAL     ACCESS:    2870540  HIT:    2316694  MISS:     553846
L2C LOAD      ACCESS:     353812  HIT:     113651  MISS:     240161
L2C RFO       ACCESS:      42332  HIT:      12283  MISS:      30049
L2C PREFETCH  ACCESS:    2298441  HIT:    2015619  MISS:     282822
L2C WRITEBACK ACCESS:     175955  HIT:     175141  MISS:        814
L2C PREFETCH  REQUESTED:    2953337  ISSUED:    2926339  USEFUL:      11877  USELESS:     271671
L2C AVERAGE MISS LATENCY: 114.999 cycles
LLC TOTAL     ACCESS:    1428789  HIT:    1040709  MISS:     388080
LLC LOAD      ACCESS:     230454  HIT:     135897  MISS:      94557
LLC RFO       ACCESS:      30049  HIT:       5240  MISS:      24809
LLC PREFETCH  ACCESS:    1033693  HIT:     765482  MISS:     268211
LLC WRITEBACK ACCESS:     134593  HIT:     134090  MISS:        503
LLC PREFETCH  REQUESTED:          0  ISSUED:          0  USEFUL:      42574  USELESS:     230183
LLC AVERAGE MISS LATENCY: 197.83 cycles
Major fault: 0 Minor fault: 10537
CPU 0 L1D next line prefetcher final stats

DRAM Statistics
 CHANNEL 0
 RQ ROW_BUFFER_HIT:      98805  ROW_BUFFER_MISS:     288755
 DBUS_CONGESTED:     223666
 WQ ROW_BUFFER_HIT:      21740  ROW_BUFFER_MISS:      92570  FULL:          0

 AVG_CONGESTED_CYCLE: 5

CPU 0 Branch Prediction Accuracy: 98.1683% MPKI: 3.13642 Average ROB Occupancy at Mispredict: 87.6415

Branch types
NOT_BRANCH: 41438063 82.8761%
BRANCH_DIRECT_JUMP: 413829 0.827658%
BRANCH_INDIRECT: 47058 0.094116%
BRANCH_CONDITIONAL: 6843835 13.6877%
BRANCH_DIRECT_CALL: 536885 1.07377%
BRANCH_INDIRECT_CALL: 90642 0.181284%
BRANCH_RETURN: 629329 1.25866%
BRANCH_OTHER: 0 0%

