Initialize SIGNATURE TABLE
ST_SET: 1
ST_WAY: 256
ST_TAG_BIT: 16
ST_TAG_MASK: ffff

Initialize PATTERN TABLE
PT_SET: 512
PT_WAY: 4
SIG_DELTA_BIT: 7
C_SIG_BIT: 4
C_DELTA_BIT: 4

Initialize PREFETCH FILTER
FILTER_SET: 1024

*** ChampSim Multicore Out-of-Order Simulator ***

Warmup Instructions: 50000000
Simulation Instructions: 50000000
Number of CPUs: 1
LLC sets: 2048
LLC ways: 16
Off-chip DRAM Size: 4096 MB Channels: 1 Width: 64-bit Data Rate: 3200 MT/s

CPU 0 runs /Users/brandon/Documents/CoursesWi22/CSE240C/Homework1/ChampSim/ipc1_public/server_018.champsimtrace.xz
L1I D-JOLT instruction prefetcher has been constructed!
CPU 0 L1D next line prefetcher
Heartbeat CPU 0 instructions: 10000003 cycles: 3616523 heartbeat IPC: 2.76509 cumulative IPC: 2.76509 (Simulation time: 0 hr 1 min 39 sec) 
Heartbeat CPU 0 instructions: 20000001 cycles: 7238204 heartbeat IPC: 2.76115 cumulative IPC: 2.76312 (Simulation time: 0 hr 3 min 36 sec) 
Heartbeat CPU 0 instructions: 30000003 cycles: 10713379 heartbeat IPC: 2.87755 cumulative IPC: 2.80024 (Simulation time: 0 hr 5 min 30 sec) 
Heartbeat CPU 0 instructions: 40000000 cycles: 14225764 heartbeat IPC: 2.84707 cumulative IPC: 2.8118 (Simulation time: 0 hr 7 min 31 sec) 
Heartbeat CPU 0 instructions: 50000003 cycles: 17843599 heartbeat IPC: 2.76408 cumulative IPC: 2.80213 (Simulation time: 0 hr 9 min 38 sec) 

Warmup complete CPU 0 instructions: 50000003 cycles: 17843599 (Simulation time: 0 hr 9 min 38 sec) 

Heartbeat CPU 0 instructions: 60000000 cycles: 35358165 heartbeat IPC: 0.570953 cumulative IPC: 0.570953 (Simulation time: 0 hr 12 min 26 sec) 
Heartbeat CPU 0 instructions: 70000001 cycles: 52942397 heartbeat IPC: 0.568691 cumulative IPC: 0.56982 (Simulation time: 0 hr 15 min 14 sec) 
Heartbeat CPU 0 instructions: 80000000 cycles: 70409306 heartbeat IPC: 0.572511 cumulative IPC: 0.570714 (Simulation time: 0 hr 17 min 33 sec) 
Heartbeat CPU 0 instructions: 90000002 cycles: 87966121 heartbeat IPC: 0.569579 cumulative IPC: 0.57043 (Simulation time: 0 hr 18 min 35 sec) 
Heartbeat CPU 0 instructions: 100000001 cycles: 105503750 heartbeat IPC: 0.570202 cumulative IPC: 0.570385 (Simulation time: 0 hr 19 min 17 sec) 
Finished CPU 0 instructions: 50000002 cycles: 87660153 cumulative IPC: 0.570385 (Simulation time: 0 hr 19 min 17 sec) 

ChampSim completed all CPUs

Region of Interest Statistics

CPU 0 cumulative IPC: 0.570385 instructions: 50000002 cycles: 87660153
L1D TOTAL     ACCESS:   18619327  HIT:   16401594  MISS:    2217733
L1D LOAD      ACCESS:    7042486  HIT:    6318465  MISS:     724021
L1D RFO       ACCESS:    5810637  HIT:    4858140  MISS:     952497
L1D PREFETCH  ACCESS:    5766204  HIT:    5224989  MISS:     541215
L1D WRITEBACK ACCESS:          0  HIT:          0  MISS:          0
L1D PREFETCH  REQUESTED:    7083997  ISSUED:    6881710  USEFUL:     201458  USELESS:     339846
L1D AVERAGE MISS LATENCY: 178.546 cycles
L1I TOTAL     ACCESS:   18086880  HIT:   14622796  MISS:    3464084
L1I LOAD      ACCESS:   10128697  HIT:   10094687  MISS:      34010
L1I RFO       ACCESS:          0  HIT:          0  MISS:          0
L1I PREFETCH  ACCESS:    7958183  HIT:    4528109  MISS:    3430074
L1I WRITEBACK ACCESS:          0  HIT:          0  MISS:          0
L1I PREFETCH  REQUESTED:    8487279  ISSUED:    8448965  USEFUL:    2729971  USELESS:     699997
L1I AVERAGE MISS LATENCY: 17.9211 cycles
L2C TOTAL     ACCESS:    8351101  HIT:    6487101  MISS:    1864000
L2C LOAD      ACCESS:     529575  HIT:     262887  MISS:     266688
L2C RFO       ACCESS:     951789  HIT:      21617  MISS:     930172
L2C PREFETCH  ACCESS:    5699655  HIT:    5035367  MISS:     664288
L2C WRITEBACK ACCESS:    1170082  HIT:    1167230  MISS:       2852
L2C PREFETCH  REQUESTED:    4982448  ISSUED:    4976432  USEFUL:      21210  USELESS:     644062
L2C AVERAGE MISS LATENCY: 217.564 cycles
LLC TOTAL     ACCESS:    4188757  HIT:    2736419  MISS:    1452338
LLC LOAD      ACCESS:     266623  HIT:     164695  MISS:     101928
LLC RFO       ACCESS:     930165  HIT:     136214  MISS:     793951
LLC PREFETCH  ACCESS:    1890924  HIT:    1336352  MISS:     554572
LLC WRITEBACK ACCESS:    1101045  HIT:    1099158  MISS:       1887
LLC PREFETCH  REQUESTED:          0  ISSUED:          0  USEFUL:      30838  USELESS:     523983
LLC AVERAGE MISS LATENCY: 286.27 cycles
Major fault: 0 Minor fault: 22446
CPU 0 L1D next line prefetcher final stats

DRAM Statistics
 CHANNEL 0
 RQ ROW_BUFFER_HIT:     410252  ROW_BUFFER_MISS:    1039794
 DBUS_CONGESTED:    1455434
 WQ ROW_BUFFER_HIT:     257019  ROW_BUFFER_MISS:     641617  FULL:          0

 AVG_CONGESTED_CYCLE: 6

CPU 0 Branch Prediction Accuracy: 99.7114% MPKI: 0.47678 Average ROB Occupancy at Mispredict: 212.794

Branch types
NOT_BRANCH: 41740997 83.482%
BRANCH_DIRECT_JUMP: 458652 0.917304%
BRANCH_INDIRECT: 48282 0.096564%
BRANCH_CONDITIONAL: 5930880 11.8618%
BRANCH_DIRECT_CALL: 744230 1.48846%
BRANCH_INDIRECT_CALL: 166336 0.332672%
BRANCH_RETURN: 910589 1.82118%
BRANCH_OTHER: 0 0%

