Initialize SIGNATURE TABLE
ST_SET: 1
ST_WAY: 256
ST_TAG_BIT: 16
ST_TAG_MASK: ffff

Initialize PATTERN TABLE
PT_SET: 512
PT_WAY: 4
SIG_DELTA_BIT: 7
C_SIG_BIT: 4
C_DELTA_BIT: 4

Initialize PREFETCH FILTER
FILTER_SET: 1024

*** ChampSim Multicore Out-of-Order Simulator ***

Warmup Instructions: 50000000
Simulation Instructions: 50000000
Number of CPUs: 1
LLC sets: 2048
LLC ways: 16
Off-chip DRAM Size: 4096 MB Channels: 1 Width: 64-bit Data Rate: 3200 MT/s

CPU 0 runs /Users/brandon/Documents/CoursesWi22/CSE240C/Homework1/ChampSim/ipc1_public/server_031.champsimtrace.xz
L1I D-JOLT instruction prefetcher has been constructed!
CPU 0 L1D next line prefetcher
Heartbeat CPU 0 instructions: 10000003 cycles: 3520049 heartbeat IPC: 2.84087 cumulative IPC: 2.84087 (Simulation time: 0 hr 1 min 53 sec) 
Heartbeat CPU 0 instructions: 20000002 cycles: 7039292 heartbeat IPC: 2.84152 cumulative IPC: 2.8412 (Simulation time: 0 hr 3 min 48 sec) 
Heartbeat CPU 0 instructions: 30000002 cycles: 10559657 heartbeat IPC: 2.84061 cumulative IPC: 2.841 (Simulation time: 0 hr 5 min 54 sec) 
Heartbeat CPU 0 instructions: 40000003 cycles: 14074322 heartbeat IPC: 2.84522 cumulative IPC: 2.84206 (Simulation time: 0 hr 7 min 52 sec) 
Heartbeat CPU 0 instructions: 50000001 cycles: 17590844 heartbeat IPC: 2.84372 cumulative IPC: 2.84239 (Simulation time: 0 hr 9 min 51 sec) 

Warmup complete CPU 0 instructions: 50000001 cycles: 17590844 (Simulation time: 0 hr 9 min 51 sec) 

Heartbeat CPU 0 instructions: 60000001 cycles: 25111771 heartbeat IPC: 1.32962 cumulative IPC: 1.32962 (Simulation time: 0 hr 11 min 53 sec) 
Heartbeat CPU 0 instructions: 70000002 cycles: 32699112 heartbeat IPC: 1.31798 cumulative IPC: 1.32378 (Simulation time: 0 hr 13 min 54 sec) 
*** Reached end of trace for Core: 0 Repeating trace: /Users/brandon/Documents/CoursesWi22/CSE240C/Homework1/ChampSim/ipc1_public/server_031.champsimtrace.xz
Heartbeat CPU 0 instructions: 80000000 cycles: 40141814 heartbeat IPC: 1.3436 cumulative IPC: 1.33032 (Simulation time: 0 hr 15 min 44 sec) 
Heartbeat CPU 0 instructions: 90000003 cycles: 47618741 heartbeat IPC: 1.33745 cumulative IPC: 1.33209 (Simulation time: 0 hr 17 min 28 sec) 
Heartbeat CPU 0 instructions: 100000000 cycles: 55045059 heartbeat IPC: 1.34656 cumulative IPC: 1.33496 (Simulation time: 0 hr 18 min 56 sec) 
Finished CPU 0 instructions: 50000000 cycles: 37454217 cumulative IPC: 1.33496 (Simulation time: 0 hr 18 min 56 sec) 

ChampSim completed all CPUs

Region of Interest Statistics

CPU 0 cumulative IPC: 1.33496 instructions: 50000000 cycles: 37454217
L1D TOTAL     ACCESS:   19484399  HIT:   17579921  MISS:    1904478
L1D LOAD      ACCESS:    6755861  HIT:    5882168  MISS:     873693
L1D RFO       ACCESS:    6318965  HIT:    6026944  MISS:     292021
L1D PREFETCH  ACCESS:    6409573  HIT:    5670809  MISS:     738764
L1D WRITEBACK ACCESS:          0  HIT:          0  MISS:          0
L1D PREFETCH  REQUESTED:    6819070  ISSUED:    6703064  USEFUL:     173226  USELESS:     565543
L1D AVERAGE MISS LATENCY: 23.174 cycles
L1I TOTAL     ACCESS:   15965324  HIT:   12477061  MISS:    3488263
L1I LOAD      ACCESS:    9739106  HIT:    9691986  MISS:      47120
L1I RFO       ACCESS:          0  HIT:          0  MISS:          0
L1I PREFETCH  ACCESS:    6226218  HIT:    2785075  MISS:    3441143
L1I WRITEBACK ACCESS:          0  HIT:          0  MISS:          0
L1I PREFETCH  REQUESTED:    6586871  ISSUED:    6498049  USEFUL:    3003712  USELESS:     437446
L1I AVERAGE MISS LATENCY: 18.3862 cycles
L2C TOTAL     ACCESS:    7761068  HIT:    7051204  MISS:     709864
L2C LOAD      ACCESS:     867973  HIT:     717971  MISS:     150002
L2C RFO       ACCESS:     289653  HIT:     245862  MISS:      43791
L2C PREFETCH  ACCESS:    5986500  HIT:    5472072  MISS:     514428
L2C WRITEBACK ACCESS:     616942  HIT:     615299  MISS:       1643
L2C PREFETCH  REQUESTED:    5497374  ISSUED:    5481284  USEFUL:       7084  USELESS:     506890
L2C AVERAGE MISS LATENCY: 42.755 cycles
LLC TOTAL     ACCESS:    2474254  HIT:    2387947  MISS:      86307
LLC LOAD      ACCESS:     149716  HIT:     130997  MISS:      18719
LLC RFO       ACCESS:      43783  HIT:      39603  MISS:       4180
LLC PREFETCH  ACCESS:    2189333  HIT:    2126490  MISS:      62843
LLC WRITEBACK ACCESS:      91422  HIT:      90857  MISS:        565
LLC PREFETCH  REQUESTED:          0  ISSUED:          0  USEFUL:       2751  USELESS:      58996
LLC AVERAGE MISS LATENCY: 159.824 cycles
Major fault: 0 Minor fault: 6047
CPU 0 L1D next line prefetcher final stats

DRAM Statistics
 CHANNEL 0
 RQ ROW_BUFFER_HIT:      23267  ROW_BUFFER_MISS:      62470
 DBUS_CONGESTED:      35482
 WQ ROW_BUFFER_HIT:        805  ROW_BUFFER_MISS:       5262  FULL:          0

 AVG_CONGESTED_CYCLE: 5

CPU 0 Branch Prediction Accuracy: 99.6894% MPKI: 0.58048 Average ROB Occupancy at Mispredict: 141.644

Branch types
NOT_BRANCH: 40655657 81.3113%
BRANCH_DIRECT_JUMP: 546483 1.09297%
BRANCH_INDIRECT: 172433 0.344866%
BRANCH_CONDITIONAL: 6207594 12.4152%
BRANCH_DIRECT_CALL: 1018497 2.03699%
BRANCH_INDIRECT_CALL: 190373 0.380746%
BRANCH_RETURN: 1208855 2.41771%
BRANCH_OTHER: 0 0%

