Initialize SIGNATURE TABLE
ST_SET: 1
ST_WAY: 256
ST_TAG_BIT: 16
ST_TAG_MASK: ffff

Initialize PATTERN TABLE
PT_SET: 512
PT_WAY: 4
SIG_DELTA_BIT: 7
C_SIG_BIT: 4
C_DELTA_BIT: 4

Initialize PREFETCH FILTER
FILTER_SET: 1024

*** ChampSim Multicore Out-of-Order Simulator ***

Warmup Instructions: 50000000
Simulation Instructions: 50000000
Number of CPUs: 1
LLC sets: 2048
LLC ways: 16
Off-chip DRAM Size: 4096 MB Channels: 1 Width: 64-bit Data Rate: 3200 MT/s

CPU 0 runs /Users/brandon/Documents/CoursesWi22/CSE240C/Homework1/ChampSim/ipc1_public/server_021.champsimtrace.xz
L1I D-JOLT instruction prefetcher has been constructed!
CPU 0 L1D next line prefetcher
Heartbeat CPU 0 instructions: 10000000 cycles: 3623641 heartbeat IPC: 2.75966 cumulative IPC: 2.75966 (Simulation time: 0 hr 1 min 40 sec) 
Heartbeat CPU 0 instructions: 20000000 cycles: 7241632 heartbeat IPC: 2.76396 cumulative IPC: 2.76181 (Simulation time: 0 hr 3 min 38 sec) 
Heartbeat CPU 0 instructions: 30000003 cycles: 10890620 heartbeat IPC: 2.74049 cumulative IPC: 2.75466 (Simulation time: 0 hr 5 min 39 sec) 
Heartbeat CPU 0 instructions: 40000001 cycles: 14504267 heartbeat IPC: 2.76729 cumulative IPC: 2.75781 (Simulation time: 0 hr 7 min 44 sec) 
Heartbeat CPU 0 instructions: 50000002 cycles: 18140174 heartbeat IPC: 2.75035 cumulative IPC: 2.75631 (Simulation time: 0 hr 9 min 52 sec) 

Warmup complete CPU 0 instructions: 50000002 cycles: 18140174 (Simulation time: 0 hr 9 min 52 sec) 

Heartbeat CPU 0 instructions: 60000001 cycles: 34914202 heartbeat IPC: 0.59616 cumulative IPC: 0.59616 (Simulation time: 0 hr 12 min 39 sec) 
Heartbeat CPU 0 instructions: 70000002 cycles: 51824627 heartbeat IPC: 0.591351 cumulative IPC: 0.593746 (Simulation time: 0 hr 15 min 26 sec) 
Heartbeat CPU 0 instructions: 80000001 cycles: 68524918 heartbeat IPC: 0.598792 cumulative IPC: 0.595418 (Simulation time: 0 hr 17 min 38 sec) 
Heartbeat CPU 0 instructions: 90000001 cycles: 85475774 heartbeat IPC: 0.589941 cumulative IPC: 0.594039 (Simulation time: 0 hr 18 min 37 sec) 
Heartbeat CPU 0 instructions: 100000002 cycles: 102223518 heartbeat IPC: 0.597095 cumulative IPC: 0.594648 (Simulation time: 0 hr 19 min 18 sec) 
Finished CPU 0 instructions: 50000000 cycles: 84083344 cumulative IPC: 0.594648 (Simulation time: 0 hr 19 min 18 sec) 

ChampSim completed all CPUs

Region of Interest Statistics

CPU 0 cumulative IPC: 0.594648 instructions: 50000000 cycles: 84083344
L1D TOTAL     ACCESS:   18699818  HIT:   16496387  MISS:    2203431
L1D LOAD      ACCESS:    7058839  HIT:    6356467  MISS:     702372
L1D RFO       ACCESS:    5876087  HIT:    4900557  MISS:     975530
L1D PREFETCH  ACCESS:    5764892  HIT:    5239363  MISS:     525529
L1D WRITEBACK ACCESS:          0  HIT:          0  MISS:          0
L1D PREFETCH  REQUESTED:    7101513  ISSUED:    6896358  USEFUL:     204276  USELESS:     321248
L1D AVERAGE MISS LATENCY: 183.02 cycles
L1I TOTAL     ACCESS:   18362254  HIT:   14877443  MISS:    3484811
L1I LOAD      ACCESS:   10143545  HIT:   10099014  MISS:      44531
L1I RFO       ACCESS:          0  HIT:          0  MISS:          0
L1I PREFETCH  ACCESS:    8218709  HIT:    4778429  MISS:    3440280
L1I WRITEBACK ACCESS:          0  HIT:          0  MISS:          0
L1I PREFETCH  REQUESTED:    8871580  ISSUED:    8769980  USEFUL:    2753143  USELESS:     687105
L1I AVERAGE MISS LATENCY: 17.5551 cycles
L2C TOTAL     ACCESS:    8374073  HIT:    6509346  MISS:    1864727
L2C LOAD      ACCESS:     509389  HIT:     260171  MISS:     249218
L2C RFO       ACCESS:     974967  HIT:      21353  MISS:     953614
L2C PREFETCH  ACCESS:    5709843  HIT:    5050689  MISS:     659154
L2C WRITEBACK ACCESS:    1179874  HIT:    1177133  MISS:       2741
L2C PREFETCH  REQUESTED:    5196718  ISSUED:    5188530  USEFUL:      19497  USELESS:     639593
L2C AVERAGE MISS LATENCY: 221.786 cycles
LLC TOTAL     ACCESS:    4250093  HIT:    2832359  MISS:    1417734
LLC LOAD      ACCESS:     249151  HIT:     169716  MISS:      79435
LLC RFO       ACCESS:     953612  HIT:     141794  MISS:     811818
LLC PREFETCH  ACCESS:    1934104  HIT:    1410105  MISS:     523999
LLC WRITEBACK ACCESS:    1113226  HIT:    1110744  MISS:       2482
LLC PREFETCH  REQUESTED:          0  ISSUED:          0  USEFUL:      31444  USELESS:     491105
LLC AVERAGE MISS LATENCY: 297.799 cycles
Major fault: 0 Minor fault: 22292
CPU 0 L1D next line prefetcher final stats

DRAM Statistics
 CHANNEL 0
 RQ ROW_BUFFER_HIT:     407294  ROW_BUFFER_MISS:    1007603
 DBUS_CONGESTED:    1459750
 WQ ROW_BUFFER_HIT:     251912  ROW_BUFFER_MISS:     652465  FULL:          0

 AVG_CONGESTED_CYCLE: 6

CPU 0 Branch Prediction Accuracy: 99.8303% MPKI: 0.27836 Average ROB Occupancy at Mispredict: 227.781

Branch types
NOT_BRANCH: 41798548 83.5971%
BRANCH_DIRECT_JUMP: 445215 0.89043%
BRANCH_INDIRECT: 50481 0.100962%
BRANCH_CONDITIONAL: 5868246 11.7365%
BRANCH_DIRECT_CALL: 758228 1.51646%
BRANCH_INDIRECT_CALL: 160494 0.320988%
BRANCH_RETURN: 918718 1.83744%
BRANCH_OTHER: 0 0%

