Initialize SIGNATURE TABLE
ST_SET: 1
ST_WAY: 256
ST_TAG_BIT: 16
ST_TAG_MASK: ffff

Initialize PATTERN TABLE
PT_SET: 512
PT_WAY: 4
SIG_DELTA_BIT: 7
C_SIG_BIT: 4
C_DELTA_BIT: 4

Initialize PREFETCH FILTER
FILTER_SET: 1024

*** ChampSim Multicore Out-of-Order Simulator ***

Warmup Instructions: 50000000
Simulation Instructions: 50000000
Number of CPUs: 1
LLC sets: 2048
LLC ways: 16
Off-chip DRAM Size: 4096 MB Channels: 1 Width: 64-bit Data Rate: 3200 MT/s

CPU 0 runs /Users/brandon/Documents/CoursesWi22/CSE240C/Homework1/ChampSim/ipc1_public/server_010.champsimtrace.xz
L1I D-JOLT instruction prefetcher has been constructed!
CPU 0 L1D next line prefetcher
Heartbeat CPU 0 instructions: 10000000 cycles: 3193984 heartbeat IPC: 3.13089 cumulative IPC: 3.13089 (Simulation time: 0 hr 1 min 29 sec) 
Heartbeat CPU 0 instructions: 20000002 cycles: 6385470 heartbeat IPC: 3.13334 cumulative IPC: 3.13211 (Simulation time: 0 hr 3 min 15 sec) 
Heartbeat CPU 0 instructions: 30000001 cycles: 9580087 heartbeat IPC: 3.13027 cumulative IPC: 3.1315 (Simulation time: 0 hr 5 min 3 sec) 
Heartbeat CPU 0 instructions: 40000000 cycles: 12771480 heartbeat IPC: 3.13343 cumulative IPC: 3.13198 (Simulation time: 0 hr 6 min 52 sec) 
Heartbeat CPU 0 instructions: 50000003 cycles: 15967658 heartbeat IPC: 3.12874 cumulative IPC: 3.13133 (Simulation time: 0 hr 8 min 45 sec) 

Warmup complete CPU 0 instructions: 50000003 cycles: 15967658 (Simulation time: 0 hr 8 min 45 sec) 

Heartbeat CPU 0 instructions: 60000001 cycles: 23288937 heartbeat IPC: 1.36588 cumulative IPC: 1.36588 (Simulation time: 0 hr 10 min 27 sec) 
Heartbeat CPU 0 instructions: 70000003 cycles: 30714913 heartbeat IPC: 1.34662 cumulative IPC: 1.35618 (Simulation time: 0 hr 12 min 6 sec) 
Heartbeat CPU 0 instructions: 80000003 cycles: 38213827 heartbeat IPC: 1.33353 cumulative IPC: 1.34855 (Simulation time: 0 hr 13 min 44 sec) 
Heartbeat CPU 0 instructions: 90000002 cycles: 45412645 heartbeat IPC: 1.38912 cumulative IPC: 1.35847 (Simulation time: 0 hr 15 min 23 sec) 
Heartbeat CPU 0 instructions: 100000003 cycles: 66090164 heartbeat IPC: 0.483617 cumulative IPC: 0.997556 (Simulation time: 0 hr 17 min 38 sec) 
Finished CPU 0 instructions: 50000000 cycles: 50122506 cumulative IPC: 0.997556 (Simulation time: 0 hr 17 min 38 sec) 

ChampSim completed all CPUs

Region of Interest Statistics

CPU 0 cumulative IPC: 0.997556 instructions: 50000000 cycles: 50122506
L1D TOTAL     ACCESS:   19956348  HIT:   16731093  MISS:    3225255
L1D LOAD      ACCESS:    7732975  HIT:    6140672  MISS:    1592303
L1D RFO       ACCESS:    4713574  HIT:    4619266  MISS:      94308
L1D PREFETCH  ACCESS:    7509799  HIT:    5971155  MISS:    1538644
L1D WRITEBACK ACCESS:          0  HIT:          0  MISS:          0
L1D PREFETCH  REQUESTED:    7765230  ISSUED:    7667874  USEFUL:     118046  USELESS:    1420570
L1D AVERAGE MISS LATENCY: 22.7191 cycles
L1I TOTAL     ACCESS:   15989760  HIT:   14253551  MISS:    1736209
L1I LOAD      ACCESS:    9968225  HIT:    9834928  MISS:     133297
L1I RFO       ACCESS:          0  HIT:          0  MISS:          0
L1I PREFETCH  ACCESS:    6021535  HIT:    4418623  MISS:    1602912
L1I WRITEBACK ACCESS:          0  HIT:          0  MISS:          0
L1I PREFETCH  REQUESTED:    6428615  ISSUED:    6261263  USEFUL:    1158875  USELESS:     443968
L1I AVERAGE MISS LATENCY: 29.807 cycles
L2C TOTAL     ACCESS:    6468113  HIT:    5328386  MISS:    1139727
L2C LOAD      ACCESS:    1659555  HIT:    1394269  MISS:     265286
L2C RFO       ACCESS:      93326  HIT:      49319  MISS:      44007
L2C PREFETCH  ACCESS:    4449892  HIT:    3621260  MISS:     828632
L2C WRITEBACK ACCESS:     265340  HIT:     263538  MISS:       1802
L2C PREFETCH  REQUESTED:    5530442  ISSUED:    5527064  USEFUL:      35015  USELESS:     794942
L2C AVERAGE MISS LATENCY: 45.1967 cycles
LLC TOTAL     ACCESS:    2394053  HIT:    2260931  MISS:     133122
LLC LOAD      ACCESS:     265216  HIT:     245798  MISS:      19418
LLC RFO       ACCESS:      44001  HIT:      34998  MISS:       9003
LLC PREFETCH  ACCESS:    1934905  HIT:    1830506  MISS:     104399
LLC WRITEBACK ACCESS:     149931  HIT:     149629  MISS:        302
LLC PREFETCH  REQUESTED:          0  ISSUED:          0  USEFUL:      12887  USELESS:      92187
LLC AVERAGE MISS LATENCY: 171.143 cycles
Major fault: 0 Minor fault: 5606
CPU 0 L1D next line prefetcher final stats

DRAM Statistics
 CHANNEL 0
 RQ ROW_BUFFER_HIT:      19693  ROW_BUFFER_MISS:     113112
 DBUS_CONGESTED:      57159
 WQ ROW_BUFFER_HIT:      10345  ROW_BUFFER_MISS:      43513  FULL:          0

 AVG_CONGESTED_CYCLE: 5

CPU 0 Branch Prediction Accuracy: 99.5528% MPKI: 0.89798 Average ROB Occupancy at Mispredict: 124.082

Branch types
NOT_BRANCH: 39958786 79.9176%
BRANCH_DIRECT_JUMP: 449946 0.899892%
BRANCH_INDIRECT: 140210 0.28042%
BRANCH_CONDITIONAL: 7679676 15.3594%
BRANCH_DIRECT_CALL: 701578 1.40316%
BRANCH_INDIRECT_CALL: 168971 0.337942%
BRANCH_RETURN: 900560 1.80112%
BRANCH_OTHER: 0 0%

