Initialize SIGNATURE TABLE
ST_SET: 1
ST_WAY: 256
ST_TAG_BIT: 16
ST_TAG_MASK: ffff

Initialize PATTERN TABLE
PT_SET: 512
PT_WAY: 4
SIG_DELTA_BIT: 7
C_SIG_BIT: 4
C_DELTA_BIT: 4

Initialize PREFETCH FILTER
FILTER_SET: 1024

*** ChampSim Multicore Out-of-Order Simulator ***

Warmup Instructions: 50000000
Simulation Instructions: 50000000
Number of CPUs: 1
LLC sets: 2048
LLC ways: 16
Off-chip DRAM Size: 4096 MB Channels: 1 Width: 64-bit Data Rate: 3200 MT/s

CPU 0 runs /Users/brandon/Documents/CoursesWi22/CSE240C/Homework1/ChampSim/ipc1_public/spec_gobmk_002.champsimtrace.xz
L1I D-JOLT instruction prefetcher has been constructed!
CPU 0 L1D next line prefetcher
Heartbeat CPU 0 instructions: 10000001 cycles: 3287432 heartbeat IPC: 3.04189 cumulative IPC: 3.04189 (Simulation time: 0 hr 1 min 31 sec) 
Heartbeat CPU 0 instructions: 20000000 cycles: 6618977 heartbeat IPC: 3.00161 cumulative IPC: 3.02162 (Simulation time: 0 hr 3 min 2 sec) 
Heartbeat CPU 0 instructions: 30000000 cycles: 9956874 heartbeat IPC: 2.9959 cumulative IPC: 3.01299 (Simulation time: 0 hr 4 min 40 sec) 
Heartbeat CPU 0 instructions: 40000000 cycles: 13266296 heartbeat IPC: 3.02168 cumulative IPC: 3.01516 (Simulation time: 0 hr 6 min 26 sec) 
Heartbeat CPU 0 instructions: 50000003 cycles: 16529797 heartbeat IPC: 3.06419 cumulative IPC: 3.02484 (Simulation time: 0 hr 8 min 4 sec) 

Warmup complete CPU 0 instructions: 50000003 cycles: 16529797 (Simulation time: 0 hr 8 min 4 sec) 

Heartbeat CPU 0 instructions: 60000003 cycles: 23980188 heartbeat IPC: 1.34221 cumulative IPC: 1.34221 (Simulation time: 0 hr 9 min 15 sec) 
Heartbeat CPU 0 instructions: 70000000 cycles: 31376273 heartbeat IPC: 1.35207 cumulative IPC: 1.34712 (Simulation time: 0 hr 10 min 24 sec) 
Heartbeat CPU 0 instructions: 80000000 cycles: 38633041 heartbeat IPC: 1.37802 cumulative IPC: 1.35727 (Simulation time: 0 hr 11 min 33 sec) 
Heartbeat CPU 0 instructions: 90000003 cycles: 46203104 heartbeat IPC: 1.32099 cumulative IPC: 1.34801 (Simulation time: 0 hr 12 min 37 sec) 
Heartbeat CPU 0 instructions: 100000003 cycles: 53999982 heartbeat IPC: 1.28256 cumulative IPC: 1.33439 (Simulation time: 0 hr 13 min 43 sec) 
Finished CPU 0 instructions: 50000000 cycles: 37470185 cumulative IPC: 1.33439 (Simulation time: 0 hr 13 min 43 sec) 

ChampSim completed all CPUs

Region of Interest Statistics

CPU 0 cumulative IPC: 1.33439 instructions: 50000000 cycles: 37470185
L1D TOTAL     ACCESS:   17627793  HIT:   17504663  MISS:     123130
L1D LOAD      ACCESS:    6659460  HIT:    6625205  MISS:      34255
L1D RFO       ACCESS:    4388014  HIT:    4345335  MISS:      42679
L1D PREFETCH  ACCESS:    6580319  HIT:    6534123  MISS:      46196
L1D WRITEBACK ACCESS:          0  HIT:          0  MISS:          0
L1D PREFETCH  REQUESTED:    6661810  ISSUED:    6594470  USEFUL:      17125  USELESS:      29254
L1D AVERAGE MISS LATENCY: 50.7902 cycles
L1I TOTAL     ACCESS:   14999847  HIT:   12966151  MISS:    2033696
L1I LOAD      ACCESS:    8878600  HIT:    8780264  MISS:      98336
L1I RFO       ACCESS:          0  HIT:          0  MISS:          0
L1I PREFETCH  ACCESS:    6121247  HIT:    4185887  MISS:    1935360
L1I WRITEBACK ACCESS:          0  HIT:          0  MISS:          0
L1I PREFETCH  REQUESTED:    6411441  ISSUED:    6188634  USEFUL:    1003405  USELESS:     931881
L1I AVERAGE MISS LATENCY: 14.5825 cycles
L2C TOTAL     ACCESS:    3126384  HIT:    3089025  MISS:      37359
L2C LOAD      ACCESS:     127148  HIT:     112687  MISS:      14461
L2C RFO       ACCESS:      42549  HIT:      39736  MISS:       2813
L2C PREFETCH  ACCESS:    2882480  HIT:    2862533  MISS:      19947
L2C WRITEBACK ACCESS:      74207  HIT:      74069  MISS:        138
L2C PREFETCH  REQUESTED:    1405856  ISSUED:    1405848  USEFUL:       2357  USELESS:      18116
L2C AVERAGE MISS LATENCY: 126.434 cycles
LLC TOTAL     ACCESS:      93827  HIT:      62278  MISS:      31549
LLC LOAD      ACCESS:      14461  HIT:       5772  MISS:       8689
LLC RFO       ACCESS:       2813  HIT:       1192  MISS:       1621
LLC PREFETCH  ACCESS:      58435  HIT:      37703  MISS:      20732
LLC WRITEBACK ACCESS:      18118  HIT:      17611  MISS:        507
LLC PREFETCH  REQUESTED:          0  ISSUED:          0  USEFUL:       2070  USELESS:      18504
LLC AVERAGE MISS LATENCY: 182.723 cycles
Major fault: 0 Minor fault: 2782
CPU 0 L1D next line prefetcher final stats

DRAM Statistics
 CHANNEL 0
 RQ ROW_BUFFER_HIT:       2553  ROW_BUFFER_MISS:      28489
 DBUS_CONGESTED:      14342
 WQ ROW_BUFFER_HIT:        751  ROW_BUFFER_MISS:      12707  FULL:          0

 AVG_CONGESTED_CYCLE: 4

CPU 0 Branch Prediction Accuracy: 93.9974% MPKI: 10.2447 Average ROB Occupancy at Mispredict: 39.8972

Branch types
NOT_BRANCH: 41466058 82.9321%
BRANCH_DIRECT_JUMP: 464313 0.928626%
BRANCH_INDIRECT: 32 6.4e-05%
BRANCH_CONDITIONAL: 7069453 14.1389%
BRANCH_DIRECT_CALL: 499587 0.999174%
BRANCH_INDIRECT_CALL: 342 0.000684%
BRANCH_RETURN: 499906 0.999812%
BRANCH_OTHER: 0 0%

