Initialize SIGNATURE TABLE
ST_SET: 1
ST_WAY: 256
ST_TAG_BIT: 16
ST_TAG_MASK: ffff

Initialize PATTERN TABLE
PT_SET: 512
PT_WAY: 4
SIG_DELTA_BIT: 7
C_SIG_BIT: 4
C_DELTA_BIT: 4

Initialize PREFETCH FILTER
FILTER_SET: 1024

*** ChampSim Multicore Out-of-Order Simulator ***

Warmup Instructions: 50000000
Simulation Instructions: 50000000
Number of CPUs: 1
LLC sets: 2048
LLC ways: 16
Off-chip DRAM Size: 4096 MB Channels: 1 Width: 64-bit Data Rate: 3200 MT/s

CPU 0 runs /Users/brandon/Documents/CoursesWi22/CSE240C/Homework1/ChampSim/ipc1_public/spec_gcc_003.champsimtrace.xz
L1I D-JOLT instruction prefetcher has been constructed!
CPU 0 L1D next line prefetcher
Heartbeat CPU 0 instructions: 10000001 cycles: 3479206 heartbeat IPC: 2.87422 cumulative IPC: 2.87422 (Simulation time: 0 hr 1 min 21 sec) 
Heartbeat CPU 0 instructions: 20000000 cycles: 6943992 heartbeat IPC: 2.88618 cumulative IPC: 2.88019 (Simulation time: 0 hr 2 min 37 sec) 
Heartbeat CPU 0 instructions: 30000002 cycles: 10386661 heartbeat IPC: 2.90472 cumulative IPC: 2.88832 (Simulation time: 0 hr 3 min 54 sec) 
Heartbeat CPU 0 instructions: 40000000 cycles: 13852599 heartbeat IPC: 2.88522 cumulative IPC: 2.88754 (Simulation time: 0 hr 5 min 19 sec) 
Heartbeat CPU 0 instructions: 50000001 cycles: 17161375 heartbeat IPC: 3.02227 cumulative IPC: 2.91352 (Simulation time: 0 hr 6 min 41 sec) 

Warmup complete CPU 0 instructions: 50000001 cycles: 17161375 (Simulation time: 0 hr 6 min 41 sec) 

Heartbeat CPU 0 instructions: 60000000 cycles: 56516384 heartbeat IPC: 0.254097 cumulative IPC: 0.254097 (Simulation time: 0 hr 10 min 18 sec) 
Heartbeat CPU 0 instructions: 70000000 cycles: 98670570 heartbeat IPC: 0.237224 cumulative IPC: 0.245371 (Simulation time: 0 hr 13 min 58 sec) 
Heartbeat CPU 0 instructions: 80000003 cycles: 141612999 heartbeat IPC: 0.23287 cumulative IPC: 0.241058 (Simulation time: 0 hr 17 min 16 sec) 
Heartbeat CPU 0 instructions: 90000002 cycles: 177427214 heartbeat IPC: 0.279219 cumulative IPC: 0.249585 (Simulation time: 0 hr 19 min 7 sec) 
Heartbeat CPU 0 instructions: 100000001 cycles: 222742431 heartbeat IPC: 0.220676 cumulative IPC: 0.243213 (Simulation time: 0 hr 19 min 42 sec) 
Finished CPU 0 instructions: 50000000 cycles: 205581056 cumulative IPC: 0.243213 (Simulation time: 0 hr 19 min 42 sec) 

ChampSim completed all CPUs

Region of Interest Statistics

CPU 0 cumulative IPC: 0.243213 instructions: 50000000 cycles: 205581056
L1D TOTAL     ACCESS:   16806293  HIT:   11082032  MISS:    5724261
L1D LOAD      ACCESS:    4546659  HIT:    4163512  MISS:     383147
L1D RFO       ACCESS:    8202985  HIT:    3151386  MISS:    5051599
L1D PREFETCH  ACCESS:    4056649  HIT:    3767134  MISS:     289515
L1D WRITEBACK ACCESS:          0  HIT:          0  MISS:          0
L1D PREFETCH  REQUESTED:    4563960  ISSUED:    4503869  USEFUL:     152136  USELESS:     137559
L1D AVERAGE MISS LATENCY: 489.532 cycles
L1I TOTAL     ACCESS:   15271364  HIT:   13964540  MISS:    1306824
L1I LOAD      ACCESS:   11271258  HIT:   11205561  MISS:      65697
L1I RFO       ACCESS:          0  HIT:          0  MISS:          0
L1I PREFETCH  ACCESS:    4000106  HIT:    2758979  MISS:    1241127
L1I WRITEBACK ACCESS:          0  HIT:          0  MISS:          0
L1I PREFETCH  REQUESTED:    4468520  ISSUED:    4289150  USEFUL:     790299  USELESS:     450829
L1I AVERAGE MISS LATENCY: 60.3198 cycles
L2C TOTAL     ACCESS:   12581165  HIT:    6491756  MISS:    6089409
L2C LOAD      ACCESS:     237379  HIT:      66260  MISS:     171119
L2C RFO       ACCESS:    5049835  HIT:       6441  MISS:    5043394
L2C PREFETCH  ACCESS:    2136072  HIT:    1261329  MISS:     874743
L2C WRITEBACK ACCESS:    5157879  HIT:    5157726  MISS:        153
L2C PREFETCH  REQUESTED:    1936736  ISSUED:    1936703  USEFUL:      27199  USELESS:     844822
L2C AVERAGE MISS LATENCY: 459.748 cycles
LLC TOTAL     ACCESS:   11977383  HIT:    7339099  MISS:    4638284
LLC LOAD      ACCESS:     171066  HIT:     128687  MISS:      42379
LLC RFO       ACCESS:    5043394  HIT:     744790  MISS:    4298604
LLC PREFETCH  ACCESS:    1629347  HIT:    1332046  MISS:     297301
LLC WRITEBACK ACCESS:    5133576  HIT:    5133576  MISS:          0
LLC PREFETCH  REQUESTED:          0  ISSUED:          0  USEFUL:      12283  USELESS:     285026
LLC AVERAGE MISS LATENCY: 573.964 cycles
Major fault: 0 Minor fault: 2819
CPU 0 L1D next line prefetcher final stats

DRAM Statistics
 CHANNEL 0
 RQ ROW_BUFFER_HIT:    1404995  ROW_BUFFER_MISS:    3233202
 DBUS_CONGESTED:    7964873
 WQ ROW_BUFFER_HIT:    1146353  ROW_BUFFER_MISS:    3181170  FULL:          0

 AVG_CONGESTED_CYCLE: 6

CPU 0 Branch Prediction Accuracy: 99.665% MPKI: 0.78342 Average ROB Occupancy at Mispredict: 123.766

Branch types
NOT_BRANCH: 38305856 76.6117%
BRANCH_DIRECT_JUMP: 384281 0.768562%
BRANCH_INDIRECT: 71949 0.143898%
BRANCH_CONDITIONAL: 9879825 19.7597%
BRANCH_DIRECT_CALL: 650586 1.30117%
BRANCH_INDIRECT_CALL: 28456 0.056912%
BRANCH_RETURN: 679046 1.35809%
BRANCH_OTHER: 0 0%

