Initialize SIGNATURE TABLE
ST_SET: 1
ST_WAY: 256
ST_TAG_BIT: 16
ST_TAG_MASK: ffff

Initialize PATTERN TABLE
PT_SET: 512
PT_WAY: 4
SIG_DELTA_BIT: 7
C_SIG_BIT: 4
C_DELTA_BIT: 4

Initialize PREFETCH FILTER
FILTER_SET: 1024

*** ChampSim Multicore Out-of-Order Simulator ***

Warmup Instructions: 50000000
Simulation Instructions: 50000000
Number of CPUs: 1
LLC sets: 2048
LLC ways: 16
Off-chip DRAM Size: 4096 MB Channels: 1 Width: 64-bit Data Rate: 3200 MT/s

CPU 0 runs /Users/brandon/Documents/CoursesWi22/CSE240C/Homework1/ChampSim/ipc1_public/spec_perlbench_001.champsimtrace.xz
L1I D-JOLT instruction prefetcher has been constructed!
CPU 0 L1D next line prefetcher
Heartbeat CPU 0 instructions: 10000000 cycles: 3276012 heartbeat IPC: 3.05249 cumulative IPC: 3.05249 (Simulation time: 0 hr 1 min 41 sec) 
Heartbeat CPU 0 instructions: 20000000 cycles: 6541504 heartbeat IPC: 3.06233 cumulative IPC: 3.0574 (Simulation time: 0 hr 3 min 26 sec) 
Heartbeat CPU 0 instructions: 30000002 cycles: 9859884 heartbeat IPC: 3.01352 cumulative IPC: 3.04263 (Simulation time: 0 hr 5 min 25 sec) 
Heartbeat CPU 0 instructions: 40000002 cycles: 13116318 heartbeat IPC: 3.07084 cumulative IPC: 3.04964 (Simulation time: 0 hr 7 min 11 sec) 
Heartbeat CPU 0 instructions: 50000001 cycles: 16390973 heartbeat IPC: 3.05376 cumulative IPC: 3.05046 (Simulation time: 0 hr 8 min 54 sec) 

Warmup complete CPU 0 instructions: 50000001 cycles: 16390973 (Simulation time: 0 hr 8 min 54 sec) 

Heartbeat CPU 0 instructions: 60000001 cycles: 24755158 heartbeat IPC: 1.19557 cumulative IPC: 1.19557 (Simulation time: 0 hr 10 min 30 sec) 
Heartbeat CPU 0 instructions: 70000003 cycles: 32991824 heartbeat IPC: 1.21408 cumulative IPC: 1.20476 (Simulation time: 0 hr 12 min 10 sec) 
Heartbeat CPU 0 instructions: 80000000 cycles: 41472747 heartbeat IPC: 1.17912 cumulative IPC: 1.19609 (Simulation time: 0 hr 13 min 45 sec) 
Heartbeat CPU 0 instructions: 90000000 cycles: 47221562 heartbeat IPC: 1.73949 cumulative IPC: 1.29741 (Simulation time: 0 hr 14 min 51 sec) 
Heartbeat CPU 0 instructions: 100000002 cycles: 53121948 heartbeat IPC: 1.6948 cumulative IPC: 1.36125 (Simulation time: 0 hr 15 min 57 sec) 
Finished CPU 0 instructions: 50000001 cycles: 36730975 cumulative IPC: 1.36125 (Simulation time: 0 hr 15 min 57 sec) 

ChampSim completed all CPUs

Region of Interest Statistics

CPU 0 cumulative IPC: 1.36125 instructions: 50000001 cycles: 36730975
L1D TOTAL     ACCESS:   20684586  HIT:   20269506  MISS:     415080
L1D LOAD      ACCESS:    7172107  HIT:    6958357  MISS:     213750
L1D RFO       ACCESS:    6542270  HIT:    6523748  MISS:      18522
L1D PREFETCH  ACCESS:    6970209  HIT:    6787401  MISS:     182808
L1D WRITEBACK ACCESS:          0  HIT:          0  MISS:          0
L1D PREFETCH  REQUESTED:    7187937  ISSUED:    7071348  USEFUL:      55135  USELESS:     127668
L1D AVERAGE MISS LATENCY: 59.2185 cycles
L1I TOTAL     ACCESS:   14661735  HIT:   13548245  MISS:    1113490
L1I LOAD      ACCESS:    9169310  HIT:    9098043  MISS:      71267
L1I RFO       ACCESS:          0  HIT:          0  MISS:          0
L1I PREFETCH  ACCESS:    5492425  HIT:    4450202  MISS:    1042223
L1I WRITEBACK ACCESS:          0  HIT:          0  MISS:          0
L1I PREFETCH  REQUESTED:    5759027  ISSUED:    5598993  USEFUL:     501875  USELESS:     540402
L1I AVERAGE MISS LATENCY: 16.524 cycles
L2C TOTAL     ACCESS:    2174265  HIT:    2004768  MISS:     169497
L2C LOAD      ACCESS:     276041  HIT:     191894  MISS:      84147
L2C RFO       ACCESS:      18268  HIT:      12701  MISS:       5567
L2C PREFETCH  ACCESS:    1801012  HIT:    1721686  MISS:      79326
L2C WRITEBACK ACCESS:      78944  HIT:      78487  MISS:        457
L2C PREFETCH  REQUESTED:    1184477  ISSUED:    1184337  USEFUL:       6984  USELESS:      72366
L2C AVERAGE MISS LATENCY: 118.869 cycles
LLC TOTAL     ACCESS:     412923  HIT:     268673  MISS:     144250
LLC LOAD      ACCESS:      84147  HIT:      33159  MISS:      50988
LLC RFO       ACCESS:       5567  HIT:       2528  MISS:       3039
LLC PREFETCH  ACCESS:     297125  HIT:     207367  MISS:      89758
LLC WRITEBACK ACCESS:      26084  HIT:      25619  MISS:        465
LLC PREFETCH  REQUESTED:          0  ISSUED:          0  USEFUL:      14034  USELESS:      75607
LLC AVERAGE MISS LATENCY: 159.27 cycles
Major fault: 0 Minor fault: 6365
CPU 0 L1D next line prefetcher final stats

DRAM Statistics
 CHANNEL 0
 RQ ROW_BUFFER_HIT:      32844  ROW_BUFFER_MISS:     110940
 DBUS_CONGESTED:      56333
 WQ ROW_BUFFER_HIT:       4377  ROW_BUFFER_MISS:      13012  FULL:          0

 AVG_CONGESTED_CYCLE: 4

CPU 0 Branch Prediction Accuracy: 98.7418% MPKI: 2.47758 Average ROB Occupancy at Mispredict: 78.61

Branch types
NOT_BRANCH: 40154100 80.3082%
BRANCH_DIRECT_JUMP: 817094 1.63419%
BRANCH_INDIRECT: 303787 0.607574%
BRANCH_CONDITIONAL: 7492103 14.9842%
BRANCH_DIRECT_CALL: 471777 0.943554%
BRANCH_INDIRECT_CALL: 144546 0.289092%
BRANCH_RETURN: 616324 1.23265%
BRANCH_OTHER: 0 0%

