Initialize SIGNATURE TABLE
ST_SET: 1
ST_WAY: 256
ST_TAG_BIT: 16
ST_TAG_MASK: ffff

Initialize PATTERN TABLE
PT_SET: 512
PT_WAY: 4
SIG_DELTA_BIT: 7
C_SIG_BIT: 4
C_DELTA_BIT: 4

Initialize PREFETCH FILTER
FILTER_SET: 1024

*** ChampSim Multicore Out-of-Order Simulator ***

Warmup Instructions: 50000000
Simulation Instructions: 50000000
Number of CPUs: 1
LLC sets: 2048
LLC ways: 16
Off-chip DRAM Size: 4096 MB Channels: 1 Width: 64-bit Data Rate: 3200 MT/s

CPU 0 runs /Users/brandon/Documents/CoursesWi22/CSE240C/Homework1/ChampSim/ipc1_public/client_008.champsimtrace.xz
L1I D-JOLT instruction prefetcher has been constructed!
CPU 0 L1D next line prefetcher
Heartbeat CPU 0 instructions: 10000001 cycles: 3754636 heartbeat IPC: 2.66337 cumulative IPC: 2.66337 (Simulation time: 0 hr 1 min 29 sec) 
Heartbeat CPU 0 instructions: 20000001 cycles: 7530675 heartbeat IPC: 2.64828 cumulative IPC: 2.6558 (Simulation time: 0 hr 3 min 15 sec) 
Heartbeat CPU 0 instructions: 30000000 cycles: 11258250 heartbeat IPC: 2.68271 cumulative IPC: 2.66471 (Simulation time: 0 hr 5 min 7 sec) 
Heartbeat CPU 0 instructions: 40000002 cycles: 15053969 heartbeat IPC: 2.63455 cumulative IPC: 2.65711 (Simulation time: 0 hr 7 min 5 sec) 
Heartbeat CPU 0 instructions: 50000003 cycles: 18847306 heartbeat IPC: 2.6362 cumulative IPC: 2.6529 (Simulation time: 0 hr 9 min 6 sec) 

Warmup complete CPU 0 instructions: 50000003 cycles: 18847306 (Simulation time: 0 hr 9 min 6 sec) 

Heartbeat CPU 0 instructions: 60000000 cycles: 27013579 heartbeat IPC: 1.22455 cumulative IPC: 1.22455 (Simulation time: 0 hr 11 min 7 sec) 
Heartbeat CPU 0 instructions: 70000000 cycles: 34954575 heartbeat IPC: 1.25929 cumulative IPC: 1.24168 (Simulation time: 0 hr 13 min 16 sec) 
Heartbeat CPU 0 instructions: 80000000 cycles: 44062083 heartbeat IPC: 1.098 cumulative IPC: 1.18978 (Simulation time: 0 hr 14 min 55 sec) 
Heartbeat CPU 0 instructions: 90000001 cycles: 51457720 heartbeat IPC: 1.35215 cumulative IPC: 1.2266 (Simulation time: 0 hr 16 min 8 sec) 
Heartbeat CPU 0 instructions: 100000001 cycles: 59498645 heartbeat IPC: 1.24364 cumulative IPC: 1.22997 (Simulation time: 0 hr 16 min 52 sec) 
Finished CPU 0 instructions: 50000002 cycles: 40651340 cumulative IPC: 1.22997 (Simulation time: 0 hr 16 min 52 sec) 

ChampSim completed all CPUs

Region of Interest Statistics

CPU 0 cumulative IPC: 1.22997 instructions: 50000002 cycles: 40651340
L1D TOTAL     ACCESS:   20473254  HIT:   18844882  MISS:    1628372
L1D LOAD      ACCESS:    8059147  HIT:    7259414  MISS:     799733
L1D RFO       ACCESS:    4813799  HIT:    4704262  MISS:     109537
L1D PREFETCH  ACCESS:    7600308  HIT:    6881206  MISS:     719102
L1D WRITEBACK ACCESS:          0  HIT:          0  MISS:          0
L1D PREFETCH  REQUESTED:    8128799  ISSUED:    7960069  USEFUL:     199393  USELESS:     519713
L1D AVERAGE MISS LATENCY: 33.1247 cycles
L1I TOTAL     ACCESS:   15829864  HIT:   14207620  MISS:    1622244
L1I LOAD      ACCESS:    9773524  HIT:    9728043  MISS:      45481
L1I RFO       ACCESS:          0  HIT:          0  MISS:          0
L1I PREFETCH  ACCESS:    6056340  HIT:    4479577  MISS:    1576763
L1I WRITEBACK ACCESS:          0  HIT:          0  MISS:          0
L1I PREFETCH  REQUESTED:    6641716  ISSUED:    6570454  USEFUL:     850197  USELESS:     726692
L1I AVERAGE MISS LATENCY: 17.0895 cycles
L2C TOTAL     ACCESS:    4536258  HIT:    4062662  MISS:     473596
L2C LOAD      ACCESS:     789687  HIT:     619356  MISS:     170331
L2C RFO       ACCESS:     104315  HIT:      18096  MISS:      86219
L2C PREFETCH  ACCESS:    3460270  HIT:    3243806  MISS:     216464
L2C WRITEBACK ACCESS:     181986  HIT:     181404  MISS:        582
L2C PREFETCH  REQUESTED:    3247068  ISSUED:    3219578  USEFUL:      19759  USELESS:     198946
L2C AVERAGE MISS LATENCY: 74.7599 cycles
LLC TOTAL     ACCESS:    1583930  HIT:    1399320  MISS:     184610
LLC LOAD      ACCESS:     170236  HIT:     147636  MISS:      22600
LLC RFO       ACCESS:      86215  HIT:      15524  MISS:      70691
LLC PREFETCH  ACCESS:    1191177  HIT:    1100201  MISS:      90976
LLC WRITEBACK ACCESS:     136302  HIT:     135959  MISS:        343
LLC PREFETCH  REQUESTED:          0  ISSUED:          0  USEFUL:      24179  USELESS:      75257
LLC AVERAGE MISS LATENCY: 167.466 cycles
Major fault: 0 Minor fault: 5306
CPU 0 L1D next line prefetcher final stats

DRAM Statistics
 CHANNEL 0
 RQ ROW_BUFFER_HIT:      51473  ROW_BUFFER_MISS:     132780
 DBUS_CONGESTED:      96584
 WQ ROW_BUFFER_HIT:      23741  ROW_BUFFER_MISS:      65853  FULL:          0

 AVG_CONGESTED_CYCLE: 6

CPU 0 Branch Prediction Accuracy: 98.6482% MPKI: 3.1551 Average ROB Occupancy at Mispredict: 97.275

Branch types
NOT_BRANCH: 38329598 76.6592%
BRANCH_DIRECT_JUMP: 510116 1.02023%
BRANCH_INDIRECT: 225730 0.45146%
BRANCH_CONDITIONAL: 8366762 16.7335%
BRANCH_DIRECT_CALL: 600748 1.2015%
BRANCH_INDIRECT_CALL: 682990 1.36598%
BRANCH_RETURN: 1283974 2.56795%
BRANCH_OTHER: 0 0%

