Initialize SIGNATURE TABLE
ST_SET: 1
ST_WAY: 256
ST_TAG_BIT: 16
ST_TAG_MASK: ffff

Initialize PATTERN TABLE
PT_SET: 512
PT_WAY: 4
SIG_DELTA_BIT: 7
C_SIG_BIT: 4
C_DELTA_BIT: 4

Initialize PREFETCH FILTER
FILTER_SET: 1024

*** ChampSim Multicore Out-of-Order Simulator ***

Warmup Instructions: 50000000
Simulation Instructions: 50000000
Number of CPUs: 1
LLC sets: 2048
LLC ways: 16
Off-chip DRAM Size: 4096 MB Channels: 1 Width: 64-bit Data Rate: 3200 MT/s

CPU 0 runs /Users/brandon/Documents/CoursesWi22/CSE240C/Homework1/ChampSim/ipc1_public/client_007.champsimtrace.xz
L1I D-JOLT instruction prefetcher has been constructed!
CPU 0 L1D next line prefetcher
Heartbeat CPU 0 instructions: 10000001 cycles: 3642298 heartbeat IPC: 2.74552 cumulative IPC: 2.74552 (Simulation time: 0 hr 1 min 17 sec) 
Heartbeat CPU 0 instructions: 20000003 cycles: 7034361 heartbeat IPC: 2.94806 cumulative IPC: 2.84319 (Simulation time: 0 hr 2 min 43 sec) 
Heartbeat CPU 0 instructions: 30000000 cycles: 10906623 heartbeat IPC: 2.58247 cumulative IPC: 2.75062 (Simulation time: 0 hr 4 min 30 sec) 
Heartbeat CPU 0 instructions: 40000003 cycles: 15066744 heartbeat IPC: 2.40378 cumulative IPC: 2.65485 (Simulation time: 0 hr 6 min 20 sec) 
Heartbeat CPU 0 instructions: 50000002 cycles: 18471981 heartbeat IPC: 2.93665 cumulative IPC: 2.7068 (Simulation time: 0 hr 8 min 0 sec) 

Warmup complete CPU 0 instructions: 50000002 cycles: 18471981 (Simulation time: 0 hr 8 min 0 sec) 

Heartbeat CPU 0 instructions: 60000003 cycles: 25362790 heartbeat IPC: 1.45121 cumulative IPC: 1.45121 (Simulation time: 0 hr 9 min 46 sec) 
Heartbeat CPU 0 instructions: 70000003 cycles: 34232095 heartbeat IPC: 1.12748 cumulative IPC: 1.26903 (Simulation time: 0 hr 11 min 43 sec) 
Heartbeat CPU 0 instructions: 80000002 cycles: 39556354 heartbeat IPC: 1.8782 cumulative IPC: 1.42285 (Simulation time: 0 hr 12 min 58 sec) 
Heartbeat CPU 0 instructions: 90000002 cycles: 47184365 heartbeat IPC: 1.31096 cumulative IPC: 1.39313 (Simulation time: 0 hr 14 min 41 sec) 
Heartbeat CPU 0 instructions: 100000002 cycles: 56125503 heartbeat IPC: 1.11843 cumulative IPC: 1.3279 (Simulation time: 0 hr 16 min 0 sec) 
Finished CPU 0 instructions: 50000000 cycles: 37653522 cumulative IPC: 1.3279 (Simulation time: 0 hr 16 min 0 sec) 

ChampSim completed all CPUs

Region of Interest Statistics

CPU 0 cumulative IPC: 1.3279 instructions: 50000000 cycles: 37653522
L1D TOTAL     ACCESS:   21192742  HIT:   20023682  MISS:    1169060
L1D LOAD      ACCESS:    8367388  HIT:    7828324  MISS:     539064
L1D RFO       ACCESS:    4868451  HIT:    4777388  MISS:      91063
L1D PREFETCH  ACCESS:    7956903  HIT:    7417970  MISS:     538933
L1D WRITEBACK ACCESS:          0  HIT:          0  MISS:          0
L1D PREFETCH  REQUESTED:    8419486  ISSUED:    8175589  USEFUL:     158433  USELESS:     380515
L1D AVERAGE MISS LATENCY: 34.62 cycles
L1I TOTAL     ACCESS:   13090899  HIT:   11921748  MISS:    1169151
L1I LOAD      ACCESS:    9116583  HIT:    9058675  MISS:      57908
L1I RFO       ACCESS:          0  HIT:          0  MISS:          0
L1I PREFETCH  ACCESS:    3974316  HIT:    2863073  MISS:    1111243
L1I WRITEBACK ACCESS:          0  HIT:          0  MISS:          0
L1I PREFETCH  REQUESTED:    4128126  ISSUED:    4072304  USEFUL:     842539  USELESS:     268740
L1I AVERAGE MISS LATENCY: 16.423 cycles
L2C TOTAL     ACCESS:    3476096  HIT:    3269439  MISS:     206657
L2C LOAD      ACCESS:     566982  HIT:     496895  MISS:      70087
L2C RFO       ACCESS:      89511  HIT:      47854  MISS:      41657
L2C PREFETCH  ACCESS:    2491950  HIT:    2397266  MISS:      94684
L2C WRITEBACK ACCESS:     327653  HIT:     327424  MISS:        229
L2C PREFETCH  REQUESTED:    2486734  ISSUED:    2480796  USEFUL:       9740  USELESS:      84960
L2C AVERAGE MISS LATENCY: 125.769 cycles
LLC TOTAL     ACCESS:     938734  HIT:     770219  MISS:     168515
LLC LOAD      ACCESS:      69999  HIT:      34764  MISS:      35235
LLC RFO       ACCESS:      41656  HIT:       7176  MISS:      34480
LLC PREFETCH  ACCESS:     752438  HIT:     653951  MISS:      98487
LLC WRITEBACK ACCESS:      74641  HIT:      74328  MISS:        313
LLC PREFETCH  REQUESTED:          0  ISSUED:          0  USEFUL:      18565  USELESS:      81248
LLC AVERAGE MISS LATENCY: 183.175 cycles
Major fault: 0 Minor fault: 4412
CPU 0 L1D next line prefetcher final stats

DRAM Statistics
 CHANNEL 0
 RQ ROW_BUFFER_HIT:      35038  ROW_BUFFER_MISS:     133156
 DBUS_CONGESTED:      93577
 WQ ROW_BUFFER_HIT:      12753  ROW_BUFFER_MISS:      45014  FULL:          0

 AVG_CONGESTED_CYCLE: 5

CPU 0 Branch Prediction Accuracy: 98.8607% MPKI: 1.8623 Average ROB Occupancy at Mispredict: 113.405

Branch types
NOT_BRANCH: 41826773 83.6535%
BRANCH_DIRECT_JUMP: 735330 1.47066%
BRANCH_INDIRECT: 269194 0.538388%
BRANCH_CONDITIONAL: 5957947 11.9159%
BRANCH_DIRECT_CALL: 368758 0.737516%
BRANCH_INDIRECT_CALL: 226975 0.45395%
BRANCH_RETURN: 614696 1.22939%
BRANCH_OTHER: 0 0%

