Initialize SIGNATURE TABLE
ST_SET: 1
ST_WAY: 256
ST_TAG_BIT: 16
ST_TAG_MASK: ffff

Initialize PATTERN TABLE
PT_SET: 512
PT_WAY: 4
SIG_DELTA_BIT: 7
C_SIG_BIT: 4
C_DELTA_BIT: 4

Initialize PREFETCH FILTER
FILTER_SET: 1024

*** ChampSim Multicore Out-of-Order Simulator ***

Warmup Instructions: 50000000
Simulation Instructions: 50000000
Number of CPUs: 1
LLC sets: 2048
LLC ways: 16
Off-chip DRAM Size: 4096 MB Channels: 1 Width: 64-bit Data Rate: 3200 MT/s

CPU 0 runs /Users/brandon/Documents/CoursesWi22/CSE240C/Homework1/ChampSim/ipc1_public/server_012.champsimtrace.xz
L1I D-JOLT instruction prefetcher has been constructed!
CPU 0 L1D next line prefetcher
Heartbeat CPU 0 instructions: 10000002 cycles: 3192858 heartbeat IPC: 3.13199 cumulative IPC: 3.13199 (Simulation time: 0 hr 1 min 19 sec) 
Heartbeat CPU 0 instructions: 20000002 cycles: 6388874 heartbeat IPC: 3.1289 cumulative IPC: 3.13044 (Simulation time: 0 hr 2 min 51 sec) 
Heartbeat CPU 0 instructions: 30000001 cycles: 9586292 heartbeat IPC: 3.12752 cumulative IPC: 3.12947 (Simulation time: 0 hr 4 min 31 sec) 
Heartbeat CPU 0 instructions: 40000000 cycles: 12789206 heartbeat IPC: 3.12216 cumulative IPC: 3.12764 (Simulation time: 0 hr 6 min 13 sec) 
Heartbeat CPU 0 instructions: 50000003 cycles: 15985048 heartbeat IPC: 3.12907 cumulative IPC: 3.12792 (Simulation time: 0 hr 7 min 56 sec) 

Warmup complete CPU 0 instructions: 50000003 cycles: 15985048 (Simulation time: 0 hr 7 min 56 sec) 

Heartbeat CPU 0 instructions: 60000002 cycles: 23123175 heartbeat IPC: 1.40093 cumulative IPC: 1.40093 (Simulation time: 0 hr 9 min 33 sec) 
Heartbeat CPU 0 instructions: 70000000 cycles: 30266400 heartbeat IPC: 1.39993 cumulative IPC: 1.40043 (Simulation time: 0 hr 11 min 13 sec) 
Heartbeat CPU 0 instructions: 80000003 cycles: 37427878 heartbeat IPC: 1.39636 cumulative IPC: 1.39907 (Simulation time: 0 hr 12 min 49 sec) 
Heartbeat CPU 0 instructions: 90000001 cycles: 44880242 heartbeat IPC: 1.34186 cumulative IPC: 1.38431 (Simulation time: 0 hr 14 min 26 sec) 
Heartbeat CPU 0 instructions: 100000002 cycles: 52176790 heartbeat IPC: 1.37051 cumulative IPC: 1.38153 (Simulation time: 0 hr 15 min 55 sec) 
Finished CPU 0 instructions: 50000001 cycles: 36191743 cumulative IPC: 1.38153 (Simulation time: 0 hr 15 min 55 sec) 

ChampSim completed all CPUs

Region of Interest Statistics

CPU 0 cumulative IPC: 1.38153 instructions: 50000001 cycles: 36191743
L1D TOTAL     ACCESS:   17326121  HIT:   16283300  MISS:    1042821
L1D LOAD      ACCESS:    6305522  HIT:    5817760  MISS:     487762
L1D RFO       ACCESS:    4957869  HIT:    4875996  MISS:      81873
L1D PREFETCH  ACCESS:    6062730  HIT:    5589544  MISS:     473186
L1D WRITEBACK ACCESS:          0  HIT:          0  MISS:          0
L1D PREFETCH  REQUESTED:    6339044  ISSUED:    6240469  USEFUL:     132635  USELESS:     340572
L1D AVERAGE MISS LATENCY: 41.1758 cycles
L1I TOTAL     ACCESS:   17035944  HIT:   14973394  MISS:    2062550
L1I LOAD      ACCESS:    8768770  HIT:    8691868  MISS:      76902
L1I RFO       ACCESS:          0  HIT:          0  MISS:          0
L1I PREFETCH  ACCESS:    8267174  HIT:    6281526  MISS:    1985648
L1I WRITEBACK ACCESS:          0  HIT:          0  MISS:          0
L1I PREFETCH  REQUESTED:    9150130  ISSUED:    8732008  USEFUL:    1432233  USELESS:     553472
L1I AVERAGE MISS LATENCY: 29.9586 cycles
L2C TOTAL     ACCESS:    4057237  HIT:    2767685  MISS:    1289552
L2C LOAD      ACCESS:     502623  HIT:     238260  MISS:     264363
L2C RFO       ACCESS:      80642  HIT:      31789  MISS:      48853
L2C PREFETCH  ACCESS:    3198484  HIT:    2223761  MISS:     974723
L2C WRITEBACK ACCESS:     275488  HIT:     273875  MISS:       1613
L2C PREFETCH  REQUESTED:    3017910  ISSUED:    3014704  USEFUL:      25314  USELESS:     949398
L2C AVERAGE MISS LATENCY: 46.6181 cycles
LLC TOTAL     ACCESS:    2402581  HIT:    2238904  MISS:     163677
LLC LOAD      ACCESS:     264244  HIT:     243521  MISS:      20723
LLC RFO       ACCESS:      48850  HIT:      37414  MISS:      11436
LLC PREFETCH  ACCESS:    1921885  HIT:    1790797  MISS:     131088
LLC WRITEBACK ACCESS:     167602  HIT:     167172  MISS:        430
LLC PREFETCH  REQUESTED:          0  ISSUED:          0  USEFUL:      11639  USELESS:     118973
LLC AVERAGE MISS LATENCY: 174.574 cycles
Major fault: 0 Minor fault: 5610
CPU 0 L1D next line prefetcher final stats

DRAM Statistics
 CHANNEL 0
 RQ ROW_BUFFER_HIT:      25045  ROW_BUFFER_MISS:     138177
 DBUS_CONGESTED:      69948
 WQ ROW_BUFFER_HIT:      11367  ROW_BUFFER_MISS:      51662  FULL:          0

 AVG_CONGESTED_CYCLE: 5

CPU 0 Branch Prediction Accuracy: 99.4607% MPKI: 1.00288 Average ROB Occupancy at Mispredict: 125.87

Branch types
NOT_BRANCH: 40701161 81.4023%
BRANCH_DIRECT_JUMP: 469810 0.93962%
BRANCH_INDIRECT: 153732 0.307464%
BRANCH_CONDITIONAL: 6944091 13.8882%
BRANCH_DIRECT_CALL: 679880 1.35976%
BRANCH_INDIRECT_CALL: 168745 0.33749%
BRANCH_RETURN: 882493 1.76499%
BRANCH_OTHER: 0 0%

