Initialize SIGNATURE TABLE
ST_SET: 1
ST_WAY: 256
ST_TAG_BIT: 16
ST_TAG_MASK: ffff

Initialize PATTERN TABLE
PT_SET: 512
PT_WAY: 4
SIG_DELTA_BIT: 7
C_SIG_BIT: 4
C_DELTA_BIT: 4

Initialize PREFETCH FILTER
FILTER_SET: 1024

*** ChampSim Multicore Out-of-Order Simulator ***

Warmup Instructions: 50000000
Simulation Instructions: 50000000
Number of CPUs: 1
LLC sets: 2048
LLC ways: 16
Off-chip DRAM Size: 4096 MB Channels: 1 Width: 64-bit Data Rate: 3200 MT/s

CPU 0 runs /Users/brandon/Documents/CoursesWi22/CSE240C/Homework1/ChampSim/ipc1_public/server_023.champsimtrace.xz
L1I D-JOLT instruction prefetcher has been constructed!
CPU 0 L1D next line prefetcher
Heartbeat CPU 0 instructions: 10000000 cycles: 3497947 heartbeat IPC: 2.85882 cumulative IPC: 2.85882 (Simulation time: 0 hr 1 min 39 sec) 
Heartbeat CPU 0 instructions: 20000000 cycles: 6995359 heartbeat IPC: 2.85926 cumulative IPC: 2.85904 (Simulation time: 0 hr 3 min 24 sec) 
Heartbeat CPU 0 instructions: 30000001 cycles: 10486392 heartbeat IPC: 2.86448 cumulative IPC: 2.86085 (Simulation time: 0 hr 5 min 7 sec) 
Heartbeat CPU 0 instructions: 40000003 cycles: 13983539 heartbeat IPC: 2.85947 cumulative IPC: 2.86051 (Simulation time: 0 hr 6 min 53 sec) 
Heartbeat CPU 0 instructions: 50000001 cycles: 17481984 heartbeat IPC: 2.85841 cumulative IPC: 2.86009 (Simulation time: 0 hr 9 min 7 sec) 

Warmup complete CPU 0 instructions: 50000001 cycles: 17481984 (Simulation time: 0 hr 9 min 7 sec) 

Heartbeat CPU 0 instructions: 60000002 cycles: 24205566 heartbeat IPC: 1.4873 cumulative IPC: 1.4873 (Simulation time: 0 hr 17 min 51 sec) 
Heartbeat CPU 0 instructions: 70000002 cycles: 31141136 heartbeat IPC: 1.44184 cumulative IPC: 1.46422 (Simulation time: 0 hr 22 min 11 sec) 
Heartbeat CPU 0 instructions: 80000000 cycles: 37994642 heartbeat IPC: 1.45911 cumulative IPC: 1.46251 (Simulation time: 0 hr 31 min 26 sec) 
Heartbeat CPU 0 instructions: 90000000 cycles: 44894613 heartbeat IPC: 1.44928 cumulative IPC: 1.45918 (Simulation time: 0 hr 33 min 21 sec) 
Heartbeat CPU 0 instructions: 100000001 cycles: 51707437 heartbeat IPC: 1.46782 cumulative IPC: 1.4609 (Simulation time: 0 hr 35 min 15 sec) 
Finished CPU 0 instructions: 50000000 cycles: 34225453 cumulative IPC: 1.4609 (Simulation time: 0 hr 35 min 15 sec) 

ChampSim completed all CPUs

Region of Interest Statistics

CPU 0 cumulative IPC: 1.4609 instructions: 50000000 cycles: 34225453
L1D TOTAL     ACCESS:   19332946  HIT:   17866159  MISS:    1466787
L1D LOAD      ACCESS:    6836398  HIT:    6174763  MISS:     661635
L1D RFO       ACCESS:    5983837  HIT:    5722553  MISS:     261284
L1D PREFETCH  ACCESS:    6512711  HIT:    5968843  MISS:     543868
L1D WRITEBACK ACCESS:          0  HIT:          0  MISS:          0
L1D PREFETCH  REQUESTED:    6887077  ISSUED:    6765006  USEFUL:     129309  USELESS:     414568
L1D AVERAGE MISS LATENCY: 24.9225 cycles
L1I TOTAL     ACCESS:   15910981  HIT:   13016034  MISS:    2894947
L1I LOAD      ACCESS:    9441345  HIT:    9396115  MISS:      45230
L1I RFO       ACCESS:          0  HIT:          0  MISS:          0
L1I PREFETCH  ACCESS:    6469636  HIT:    3619919  MISS:    2849717
L1I WRITEBACK ACCESS:          0  HIT:          0  MISS:          0
L1I PREFETCH  REQUESTED:    6848360  ISSUED:    6758034  USEFUL:    2402227  USELESS:     447505
L1I AVERAGE MISS LATENCY: 19.7051 cycles
L2C TOTAL     ACCESS:    6089393  HIT:    5296472  MISS:     792921
L2C LOAD      ACCESS:     640902  HIT:     506175  MISS:     134727
L2C RFO       ACCESS:     259432  HIT:     175395  MISS:      84037
L2C PREFETCH  ACCESS:    4689783  HIT:    4120318  MISS:     569465
L2C WRITEBACK ACCESS:     499276  HIT:     494584  MISS:       4692
L2C PREFETCH  REQUESTED:    4106993  ISSUED:    4102194  USEFUL:      13315  USELESS:     556180
L2C AVERAGE MISS LATENCY: 40.3008 cycles
LLC TOTAL     ACCESS:    2018601  HIT:    1967697  MISS:      50904
LLC LOAD      ACCESS:     134514  HIT:     128264  MISS:       6250
LLC RFO       ACCESS:      84004  HIT:      66007  MISS:      17997
LLC PREFETCH  ACCESS:    1660004  HIT:    1633648  MISS:      26356
LLC WRITEBACK ACCESS:     140079  HIT:     139778  MISS:        301
LLC PREFETCH  REQUESTED:          0  ISSUED:          0  USEFUL:       2264  USELESS:      24112
LLC AVERAGE MISS LATENCY: 181.921 cycles
Major fault: 0 Minor fault: 2776
CPU 0 L1D next line prefetcher final stats

DRAM Statistics
 CHANNEL 0
 RQ ROW_BUFFER_HIT:      15117  ROW_BUFFER_MISS:      35479
 DBUS_CONGESTED:      31529
 WQ ROW_BUFFER_HIT:       2421  ROW_BUFFER_MISS:      19189  FULL:          0

 AVG_CONGESTED_CYCLE: 6

CPU 0 Branch Prediction Accuracy: 99.6798% MPKI: 0.58608 Average ROB Occupancy at Mispredict: 147.405

Branch types
NOT_BRANCH: 40848330 81.6967%
BRANCH_DIRECT_JUMP: 548373 1.09675%
BRANCH_INDIRECT: 189802 0.379604%
BRANCH_CONDITIONAL: 6372772 12.7455%
BRANCH_DIRECT_CALL: 862207 1.72441%
BRANCH_INDIRECT_CALL: 158149 0.316298%
BRANCH_RETURN: 1020345 2.04069%
BRANCH_OTHER: 0 0%

