Initialize SIGNATURE TABLE
ST_SET: 1
ST_WAY: 256
ST_TAG_BIT: 16
ST_TAG_MASK: ffff

Initialize PATTERN TABLE
PT_SET: 512
PT_WAY: 4
SIG_DELTA_BIT: 7
C_SIG_BIT: 4
C_DELTA_BIT: 4

Initialize PREFETCH FILTER
FILTER_SET: 1024

*** ChampSim Multicore Out-of-Order Simulator ***

Warmup Instructions: 50000000
Simulation Instructions: 50000000
Number of CPUs: 1
LLC sets: 2048
LLC ways: 16
Off-chip DRAM Size: 4096 MB Channels: 1 Width: 64-bit Data Rate: 3200 MT/s

CPU 0 runs /Users/brandon/Documents/CoursesWi22/CSE240C/Homework1/ChampSim/ipc1_public/server_035.champsimtrace.xz
L1I D-JOLT instruction prefetcher has been constructed!
CPU 0 L1D next line prefetcher
Heartbeat CPU 0 instructions: 10000001 cycles: 3338558 heartbeat IPC: 2.99531 cumulative IPC: 2.99531 (Simulation time: 0 hr 1 min 40 sec) 
Heartbeat CPU 0 instructions: 20000000 cycles: 6676234 heartbeat IPC: 2.9961 cumulative IPC: 2.9957 (Simulation time: 0 hr 3 min 27 sec) 
Heartbeat CPU 0 instructions: 30000000 cycles: 10010859 heartbeat IPC: 2.99884 cumulative IPC: 2.99675 (Simulation time: 0 hr 5 min 12 sec) 
Heartbeat CPU 0 instructions: 40000000 cycles: 13350411 heartbeat IPC: 2.99441 cumulative IPC: 2.99616 (Simulation time: 0 hr 7 min 0 sec) 
Heartbeat CPU 0 instructions: 50000003 cycles: 16687428 heartbeat IPC: 2.99669 cumulative IPC: 2.99627 (Simulation time: 0 hr 9 min 19 sec) 

Warmup complete CPU 0 instructions: 50000003 cycles: 16687428 (Simulation time: 0 hr 9 min 19 sec) 

Heartbeat CPU 0 instructions: 60000001 cycles: 25170306 heartbeat IPC: 1.17884 cumulative IPC: 1.17884 (Simulation time: 0 hr 18 min 16 sec) 
Heartbeat CPU 0 instructions: 70000003 cycles: 33259177 heartbeat IPC: 1.23627 cumulative IPC: 1.20687 (Simulation time: 0 hr 23 min 28 sec) 
Heartbeat CPU 0 instructions: 80000001 cycles: 41508408 heartbeat IPC: 1.21223 cumulative IPC: 1.20865 (Simulation time: 0 hr 32 min 17 sec) 
Heartbeat CPU 0 instructions: 90000002 cycles: 49093584 heartbeat IPC: 1.31836 cumulative IPC: 1.23433 (Simulation time: 0 hr 34 min 24 sec) 
Heartbeat CPU 0 instructions: 100000002 cycles: 57322655 heartbeat IPC: 1.2152 cumulative IPC: 1.23046 (Simulation time: 0 hr 36 min 5 sec) 
Finished CPU 0 instructions: 50000003 cycles: 40635228 cumulative IPC: 1.23046 (Simulation time: 0 hr 36 min 5 sec) 

ChampSim completed all CPUs

Region of Interest Statistics

CPU 0 cumulative IPC: 1.23046 instructions: 50000003 cycles: 40635228
L1D TOTAL     ACCESS:   18200705  HIT:   16696544  MISS:    1504161
L1D LOAD      ACCESS:    6128922  HIT:    5426806  MISS:     702116
L1D RFO       ACCESS:    6157546  HIT:    6005487  MISS:     152059
L1D PREFETCH  ACCESS:    5914237  HIT:    5264251  MISS:     649986
L1D WRITEBACK ACCESS:          0  HIT:          0  MISS:          0
L1D PREFETCH  REQUESTED:    6173493  ISSUED:    6072676  USEFUL:     138252  USELESS:     511739
L1D AVERAGE MISS LATENCY: 43.5472 cycles
L1I TOTAL     ACCESS:   19644443  HIT:   15641043  MISS:    4003400
L1I LOAD      ACCESS:    9711000  HIT:    9668377  MISS:      42623
L1I RFO       ACCESS:          0  HIT:          0  MISS:          0
L1I PREFETCH  ACCESS:    9933443  HIT:    5972666  MISS:    3960777
L1I WRITEBACK ACCESS:          0  HIT:          0  MISS:          0
L1I PREFETCH  REQUESTED:   10757373  ISSUED:   10546470  USEFUL:    3352509  USELESS:     608238
L1I AVERAGE MISS LATENCY: 15.9498 cycles
L2C TOTAL     ACCESS:    7465719  HIT:    7174370  MISS:     291349
L2C LOAD      ACCESS:     725595  HIT:     603775  MISS:     121820
L2C RFO       ACCESS:     150224  HIT:     129326  MISS:      20898
L2C PREFETCH  ACCESS:    6224864  HIT:    6077823  MISS:     147041
L2C WRITEBACK ACCESS:     365036  HIT:     363446  MISS:       1590
L2C PREFETCH  REQUESTED:    6089796  ISSUED:    6079434  USEFUL:      13322  USELESS:     133691
L2C AVERAGE MISS LATENCY: 165.497 cycles
LLC TOTAL     ACCESS:    2042991  HIT:    1759738  MISS:     283253
LLC LOAD      ACCESS:     121446  HIT:      38713  MISS:      82733
LLC RFO       ACCESS:      20876  HIT:       9704  MISS:      11172
LLC PREFETCH  ACCESS:    1799741  HIT:    1611470  MISS:     188271
LLC WRITEBACK ACCESS:     100928  HIT:      99851  MISS:       1077
LLC PREFETCH  REQUESTED:          0  ISSUED:          0  USEFUL:      31387  USELESS:     156263
LLC AVERAGE MISS LATENCY: 217.79 cycles
Major fault: 0 Minor fault: 5549
CPU 0 L1D next line prefetcher final stats

DRAM Statistics
 CHANNEL 0
 RQ ROW_BUFFER_HIT:      72289  ROW_BUFFER_MISS:     209877
 DBUS_CONGESTED:     163439
 WQ ROW_BUFFER_HIT:      18995  ROW_BUFFER_MISS:      71957  FULL:          0

 AVG_CONGESTED_CYCLE: 5

CPU 0 Branch Prediction Accuracy: 99.9115% MPKI: 0.17232 Average ROB Occupancy at Mispredict: 219.077

Branch types
NOT_BRANCH: 40267408 80.5348%
BRANCH_DIRECT_JUMP: 771900 1.5438%
BRANCH_INDIRECT: 108179 0.216358%
BRANCH_CONDITIONAL: 6307188 12.6144%
BRANCH_DIRECT_CALL: 1060898 2.1218%
BRANCH_INDIRECT_CALL: 211720 0.42344%
BRANCH_RETURN: 1272639 2.54528%
BRANCH_OTHER: 0 0%

