Initialize SIGNATURE TABLE
ST_SET: 1
ST_WAY: 256
ST_TAG_BIT: 16
ST_TAG_MASK: ffff

Initialize PATTERN TABLE
PT_SET: 512
PT_WAY: 4
SIG_DELTA_BIT: 7
C_SIG_BIT: 4
C_DELTA_BIT: 4

Initialize PREFETCH FILTER
FILTER_SET: 1024

*** ChampSim Multicore Out-of-Order Simulator ***

Warmup Instructions: 50000000
Simulation Instructions: 50000000
Number of CPUs: 1
LLC sets: 2048
LLC ways: 16
Off-chip DRAM Size: 4096 MB Channels: 1 Width: 64-bit Data Rate: 3200 MT/s

CPU 0 runs /Users/brandon/Documents/CoursesWi22/CSE240C/Homework1/ChampSim/ipc1_public/server_020.champsimtrace.xz
L1I D-JOLT instruction prefetcher has been constructed!
CPU 0 L1D next line prefetcher
Heartbeat CPU 0 instructions: 10000003 cycles: 3621414 heartbeat IPC: 2.76135 cumulative IPC: 2.76135 (Simulation time: 0 hr 1 min 27 sec) 
Heartbeat CPU 0 instructions: 20000002 cycles: 7247582 heartbeat IPC: 2.75773 cumulative IPC: 2.75954 (Simulation time: 0 hr 3 min 10 sec) 
Heartbeat CPU 0 instructions: 30000001 cycles: 10866509 heartbeat IPC: 2.76325 cumulative IPC: 2.76078 (Simulation time: 0 hr 5 min 1 sec) 
Heartbeat CPU 0 instructions: 40000002 cycles: 14486985 heartbeat IPC: 2.76207 cumulative IPC: 2.7611 (Simulation time: 0 hr 6 min 54 sec) 
Heartbeat CPU 0 instructions: 50000001 cycles: 18120797 heartbeat IPC: 2.75193 cumulative IPC: 2.75926 (Simulation time: 0 hr 8 min 50 sec) 

Warmup complete CPU 0 instructions: 50000001 cycles: 18120797 (Simulation time: 0 hr 8 min 50 sec) 

Heartbeat CPU 0 instructions: 60000003 cycles: 35560242 heartbeat IPC: 0.573413 cumulative IPC: 0.573413 (Simulation time: 0 hr 11 min 29 sec) 
Heartbeat CPU 0 instructions: 70000002 cycles: 53278788 heartbeat IPC: 0.56438 cumulative IPC: 0.568861 (Simulation time: 0 hr 14 min 7 sec) 
Heartbeat CPU 0 instructions: 80000002 cycles: 70882181 heartbeat IPC: 0.568072 cumulative IPC: 0.568598 (Simulation time: 0 hr 16 min 18 sec) 
Heartbeat CPU 0 instructions: 90000001 cycles: 88437693 heartbeat IPC: 0.569622 cumulative IPC: 0.568853 (Simulation time: 0 hr 17 min 14 sec) 
Heartbeat CPU 0 instructions: 100000002 cycles: 106116395 heartbeat IPC: 0.565652 cumulative IPC: 0.56821 (Simulation time: 0 hr 17 min 52 sec) 
Finished CPU 0 instructions: 50000001 cycles: 87995598 cumulative IPC: 0.56821 (Simulation time: 0 hr 17 min 52 sec) 

ChampSim completed all CPUs

Region of Interest Statistics

CPU 0 cumulative IPC: 0.56821 instructions: 50000001 cycles: 87995598
L1D TOTAL     ACCESS:   18641542  HIT:   16437279  MISS:    2204263
L1D LOAD      ACCESS:    7047225  HIT:    6324256  MISS:     722969
L1D RFO       ACCESS:    5817598  HIT:    4871672  MISS:     945926
L1D PREFETCH  ACCESS:    5776719  HIT:    5241351  MISS:     535368
L1D WRITEBACK ACCESS:          0  HIT:          0  MISS:          0
L1D PREFETCH  REQUESTED:    7088678  ISSUED:    6888442  USEFUL:     196059  USELESS:     339228
L1D AVERAGE MISS LATENCY: 177.988 cycles
L1I TOTAL     ACCESS:   18663540  HIT:   15225787  MISS:    3437753
L1I LOAD      ACCESS:   10129739  HIT:   10085780  MISS:      43959
L1I RFO       ACCESS:          0  HIT:          0  MISS:          0
L1I PREFETCH  ACCESS:    8533801  HIT:    5140007  MISS:    3393794
L1I WRITEBACK ACCESS:          0  HIT:          0  MISS:          0
L1I PREFETCH  REQUESTED:    9176706  ISSUED:    9125113  USEFUL:    2717702  USELESS:     676126
L1I AVERAGE MISS LATENCY: 18.1705 cycles
L2C TOTAL     ACCESS:    8288733  HIT:    6423741  MISS:    1864992
L2C LOAD      ACCESS:     533883  HIT:     266936  MISS:     266947
L2C RFO       ACCESS:     945473  HIT:      20461  MISS:     925012
L2C PREFETCH  ACCESS:    5645814  HIT:    4974525  MISS:     671289
L2C WRITEBACK ACCESS:    1163563  HIT:    1161819  MISS:       1744
L2C PREFETCH  REQUESTED:    4948367  ISSUED:    4944178  USEFUL:      21563  USELESS:     648564
L2C AVERAGE MISS LATENCY: 217.154 cycles
LLC TOTAL     ACCESS:    4215982  HIT:    2749173  MISS:    1466809
LLC LOAD      ACCESS:     266826  HIT:     163892  MISS:     102934
LLC RFO       ACCESS:     925011  HIT:     136617  MISS:     788394
LLC PREFETCH  ACCESS:    1927010  HIT:    1353408  MISS:     573602
LLC WRITEBACK ACCESS:    1097135  HIT:    1095256  MISS:       1879
LLC PREFETCH  REQUESTED:          0  ISSUED:          0  USEFUL:      32927  USELESS:     540537
LLC AVERAGE MISS LATENCY: 283.737 cycles
Major fault: 0 Minor fault: 22094
CPU 0 L1D next line prefetcher final stats

DRAM Statistics
 CHANNEL 0
 RQ ROW_BUFFER_HIT:     409129  ROW_BUFFER_MISS:    1055480
 DBUS_CONGESTED:    1458525
 WQ ROW_BUFFER_HIT:     252539  ROW_BUFFER_MISS:     640009  FULL:          0

 AVG_CONGESTED_CYCLE: 6

CPU 0 Branch Prediction Accuracy: 99.712% MPKI: 0.47638 Average ROB Occupancy at Mispredict: 215.417

Branch types
NOT_BRANCH: 41729515 83.459%
BRANCH_DIRECT_JUMP: 458221 0.916442%
BRANCH_INDIRECT: 49088 0.098176%
BRANCH_CONDITIONAL: 5938532 11.8771%
BRANCH_DIRECT_CALL: 745131 1.49026%
BRANCH_INDIRECT_CALL: 167109 0.334218%
BRANCH_RETURN: 912223 1.82445%
BRANCH_OTHER: 0 0%

