Initialize SIGNATURE TABLE
ST_SET: 1
ST_WAY: 256
ST_TAG_BIT: 16
ST_TAG_MASK: ffff

Initialize PATTERN TABLE
PT_SET: 512
PT_WAY: 4
SIG_DELTA_BIT: 7
C_SIG_BIT: 4
C_DELTA_BIT: 4

Initialize PREFETCH FILTER
FILTER_SET: 1024

*** ChampSim Multicore Out-of-Order Simulator ***

Warmup Instructions: 50000000
Simulation Instructions: 50000000
Number of CPUs: 1
LLC sets: 2048
LLC ways: 16
Off-chip DRAM Size: 4096 MB Channels: 1 Width: 64-bit Data Rate: 3200 MT/s

CPU 0 runs /Users/brandon/Documents/CoursesWi22/CSE240C/Homework1/ChampSim/ipc1_public/server_016.champsimtrace.xz
L1I D-JOLT instruction prefetcher has been constructed!
CPU 0 L1D next line prefetcher
Heartbeat CPU 0 instructions: 10000000 cycles: 3496845 heartbeat IPC: 2.85972 cumulative IPC: 2.85972 (Simulation time: 0 hr 1 min 24 sec) 
Heartbeat CPU 0 instructions: 20000000 cycles: 6993997 heartbeat IPC: 2.85947 cumulative IPC: 2.8596 (Simulation time: 0 hr 3 min 2 sec) 
Heartbeat CPU 0 instructions: 30000001 cycles: 10486092 heartbeat IPC: 2.86361 cumulative IPC: 2.86093 (Simulation time: 0 hr 4 min 47 sec) 
Heartbeat CPU 0 instructions: 40000000 cycles: 13784071 heartbeat IPC: 3.03216 cumulative IPC: 2.9019 (Simulation time: 0 hr 5 min 36 sec) 
Heartbeat CPU 0 instructions: 50000002 cycles: 17019536 heartbeat IPC: 3.09075 cumulative IPC: 2.9378 (Simulation time: 0 hr 6 min 9 sec) 

Warmup complete CPU 0 instructions: 50000002 cycles: 17019536 (Simulation time: 0 hr 6 min 9 sec) 

Heartbeat CPU 0 instructions: 60000000 cycles: 24978729 heartbeat IPC: 1.25641 cumulative IPC: 1.25641 (Simulation time: 0 hr 6 min 52 sec) 
Heartbeat CPU 0 instructions: 70000001 cycles: 31764639 heartbeat IPC: 1.47364 cumulative IPC: 1.35638 (Simulation time: 0 hr 8 min 45 sec) 
Heartbeat CPU 0 instructions: 80000001 cycles: 38650007 heartbeat IPC: 1.45236 cumulative IPC: 1.38693 (Simulation time: 0 hr 10 min 43 sec) 
Heartbeat CPU 0 instructions: 90000000 cycles: 45316812 heartbeat IPC: 1.49997 cumulative IPC: 1.41356 (Simulation time: 0 hr 12 min 37 sec) 
Heartbeat CPU 0 instructions: 100000000 cycles: 52122799 heartbeat IPC: 1.46929 cumulative IPC: 1.42437 (Simulation time: 0 hr 14 min 30 sec) 
Finished CPU 0 instructions: 50000002 cycles: 35103264 cumulative IPC: 1.42437 (Simulation time: 0 hr 14 min 30 sec) 

ChampSim completed all CPUs

Region of Interest Statistics

CPU 0 cumulative IPC: 1.42437 instructions: 50000002 cycles: 35103264
L1D TOTAL     ACCESS:   17897403  HIT:   16630146  MISS:    1267257
L1D LOAD      ACCESS:    6492973  HIT:    5918988  MISS:     573985
L1D RFO       ACCESS:    5194531  HIT:    4972560  MISS:     221971
L1D PREFETCH  ACCESS:    6209899  HIT:    5738598  MISS:     471301
L1D WRITEBACK ACCESS:          0  HIT:          0  MISS:          0
L1D PREFETCH  REQUESTED:    6535425  ISSUED:    6429738  USEFUL:     112316  USELESS:     359004
L1D AVERAGE MISS LATENCY: 24.5241 cycles
L1I TOTAL     ACCESS:   15043838  HIT:   12622430  MISS:    2421408
L1I LOAD      ACCESS:    9875130  HIT:    9840488  MISS:      34642
L1I RFO       ACCESS:          0  HIT:          0  MISS:          0
L1I PREFETCH  ACCESS:    5168708  HIT:    2781942  MISS:    2386766
L1I WRITEBACK ACCESS:          0  HIT:          0  MISS:          0
L1I PREFETCH  REQUESTED:    5505485  ISSUED:    5438352  USEFUL:    2072812  USELESS:     313946
L1I AVERAGE MISS LATENCY: 20.085 cycles
L2C TOTAL     ACCESS:    5108727  HIT:    4399914  MISS:     708813
L2C LOAD      ACCESS:     553746  HIT:     431258  MISS:     122488
L2C RFO       ACCESS:     220199  HIT:     154853  MISS:      65346
L2C PREFETCH  ACCESS:    3906575  HIT:    3389919  MISS:     516656
L2C WRITEBACK ACCESS:     428207  HIT:     423884  MISS:       4323
L2C PREFETCH  REQUESTED:    3556688  ISSUED:    3552948  USEFUL:      10375  USELESS:     505342
L2C AVERAGE MISS LATENCY: 38.814 cycles
LLC TOTAL     ACCESS:    1800199  HIT:    1762685  MISS:      37514
LLC LOAD      ACCESS:     122312  HIT:     117998  MISS:       4314
LLC RFO       ACCESS:      65345  HIT:      51832  MISS:      13513
LLC PREFETCH  ACCESS:    1494275  HIT:    1474780  MISS:      19495
LLC WRITEBACK ACCESS:     118267  HIT:     118075  MISS:        192
LLC PREFETCH  REQUESTED:          0  ISSUED:          0  USEFUL:       1679  USELESS:      17821
LLC AVERAGE MISS LATENCY: 176.77 cycles
Major fault: 0 Minor fault: 2372
CPU 0 L1D next line prefetcher final stats

DRAM Statistics
 CHANNEL 0
 RQ ROW_BUFFER_HIT:      11601  ROW_BUFFER_MISS:      25712
 DBUS_CONGESTED:      23130
 WQ ROW_BUFFER_HIT:       1572  ROW_BUFFER_MISS:      14520  FULL:          0

 AVG_CONGESTED_CYCLE: 6

CPU 0 Branch Prediction Accuracy: 99.7225% MPKI: 0.50376 Average ROB Occupancy at Mispredict: 134.042

Branch types
NOT_BRANCH: 40924090 81.8482%
BRANCH_DIRECT_JUMP: 487048 0.974096%
BRANCH_INDIRECT: 169159 0.338318%
BRANCH_CONDITIONAL: 6640845 13.2817%
BRANCH_DIRECT_CALL: 755593 1.51119%
BRANCH_INDIRECT_CALL: 133962 0.267924%
BRANCH_RETURN: 889572 1.77914%
BRANCH_OTHER: 0 0%

