Initialize SIGNATURE TABLE
ST_SET: 1
ST_WAY: 256
ST_TAG_BIT: 16
ST_TAG_MASK: ffff

Initialize PATTERN TABLE
PT_SET: 512
PT_WAY: 4
SIG_DELTA_BIT: 7
C_SIG_BIT: 4
C_DELTA_BIT: 4

Initialize PREFETCH FILTER
FILTER_SET: 1024

*** ChampSim Multicore Out-of-Order Simulator ***

Warmup Instructions: 50000000
Simulation Instructions: 50000000
Number of CPUs: 1
LLC sets: 2048
LLC ways: 16
Off-chip DRAM Size: 4096 MB Channels: 1 Width: 64-bit Data Rate: 3200 MT/s

CPU 0 runs /Users/brandon/Documents/CoursesWi22/CSE240C/Homework1/ChampSim/ipc1_public/spec_gcc_001.champsimtrace.xz
L1I D-JOLT instruction prefetcher has been constructed!
CPU 0 L1D next line prefetcher
Heartbeat CPU 0 instructions: 10000003 cycles: 3219081 heartbeat IPC: 3.10648 cumulative IPC: 3.10648 (Simulation time: 0 hr 1 min 28 sec) 
Heartbeat CPU 0 instructions: 20000002 cycles: 6463799 heartbeat IPC: 3.08193 cumulative IPC: 3.09416 (Simulation time: 0 hr 3 min 5 sec) 
Heartbeat CPU 0 instructions: 30000000 cycles: 9664332 heartbeat IPC: 3.12448 cumulative IPC: 3.1042 (Simulation time: 0 hr 4 min 37 sec) 
Heartbeat CPU 0 instructions: 40000001 cycles: 12905475 heartbeat IPC: 3.08533 cumulative IPC: 3.09946 (Simulation time: 0 hr 6 min 10 sec) 
Heartbeat CPU 0 instructions: 50000001 cycles: 16145643 heartbeat IPC: 3.08626 cumulative IPC: 3.09681 (Simulation time: 0 hr 7 min 47 sec) 

Warmup complete CPU 0 instructions: 50000001 cycles: 16145643 (Simulation time: 0 hr 7 min 47 sec) 

Heartbeat CPU 0 instructions: 60000000 cycles: 24005765 heartbeat IPC: 1.27224 cumulative IPC: 1.27224 (Simulation time: 0 hr 9 min 53 sec) 
Heartbeat CPU 0 instructions: 70000002 cycles: 31934091 heartbeat IPC: 1.2613 cumulative IPC: 1.26675 (Simulation time: 0 hr 18 min 9 sec) 
Heartbeat CPU 0 instructions: 80000000 cycles: 39458900 heartbeat IPC: 1.32894 cumulative IPC: 1.28682 (Simulation time: 0 hr 21 min 58 sec) 
Heartbeat CPU 0 instructions: 90000001 cycles: 47336434 heartbeat IPC: 1.26943 cumulative IPC: 1.28243 (Simulation time: 0 hr 25 min 25 sec) 
Heartbeat CPU 0 instructions: 100000000 cycles: 55515848 heartbeat IPC: 1.22258 cumulative IPC: 1.27 (Simulation time: 0 hr 32 min 43 sec) 
Finished CPU 0 instructions: 50000000 cycles: 39370209 cumulative IPC: 1.27 (Simulation time: 0 hr 32 min 43 sec) 

ChampSim completed all CPUs

Region of Interest Statistics

CPU 0 cumulative IPC: 1.27 instructions: 50000000 cycles: 39370209
L1D TOTAL     ACCESS:   19315536  HIT:   18210356  MISS:    1105180
L1D LOAD      ACCESS:    7229239  HIT:    6749705  MISS:     479534
L1D RFO       ACCESS:    5116506  HIT:    5036897  MISS:      79609
L1D PREFETCH  ACCESS:    6969791  HIT:    6423754  MISS:     546037
L1D WRITEBACK ACCESS:          0  HIT:          0  MISS:          0
L1D PREFETCH  REQUESTED:    7273247  ISSUED:    7175441  USEFUL:     275784  USELESS:     270266
L1D AVERAGE MISS LATENCY: 25.7958 cycles
L1I TOTAL     ACCESS:   14229192  HIT:   13441971  MISS:     787221
L1I LOAD      ACCESS:    9295277  HIT:    9242232  MISS:      53045
L1I RFO       ACCESS:          0  HIT:          0  MISS:          0
L1I PREFETCH  ACCESS:    4933915  HIT:    4199739  MISS:     734176
L1I WRITEBACK ACCESS:          0  HIT:          0  MISS:          0
L1I PREFETCH  REQUESTED:    5094137  ISSUED:    5087919  USEFUL:     400781  USELESS:     333447
L1I AVERAGE MISS LATENCY: 18.2617 cycles
L2C TOTAL     ACCESS:    3110981  HIT:    2854370  MISS:     256611
L2C LOAD      ACCESS:     500096  HIT:     410927  MISS:      89169
L2C RFO       ACCESS:      74988  HIT:      36859  MISS:      38129
L2C PREFETCH  ACCESS:    2282134  HIT:    2153152  MISS:     128982
L2C WRITEBACK ACCESS:     253763  HIT:     253432  MISS:        331
L2C PREFETCH  REQUESTED:    1902947  ISSUED:    1902834  USEFUL:      32977  USELESS:      95879
L2C AVERAGE MISS LATENCY: 62.6826 cycles
LLC TOTAL     ACCESS:     690911  HIT:     616360  MISS:      74551
LLC LOAD      ACCESS:      88975  HIT:      77669  MISS:      11306
LLC RFO       ACCESS:      38129  HIT:      17067  MISS:      21062
LLC PREFETCH  ACCESS:     472204  HIT:     431090  MISS:      41114
LLC WRITEBACK ACCESS:      91603  HIT:      90534  MISS:       1069
LLC PREFETCH  REQUESTED:          0  ISSUED:          0  USEFUL:      13290  USELESS:      29892
LLC AVERAGE MISS LATENCY: 184.174 cycles
Major fault: 0 Minor fault: 6867
CPU 0 L1D next line prefetcher final stats

DRAM Statistics
 CHANNEL 0
 RQ ROW_BUFFER_HIT:      19745  ROW_BUFFER_MISS:      53732
 DBUS_CONGESTED:      35996
 WQ ROW_BUFFER_HIT:       4366  ROW_BUFFER_MISS:      23834  FULL:          0

 AVG_CONGESTED_CYCLE: 6

CPU 0 Branch Prediction Accuracy: 95.8872% MPKI: 9.67286 Average ROB Occupancy at Mispredict: 67.314

Branch types
NOT_BRANCH: 38240102 76.4802%
BRANCH_DIRECT_JUMP: 653296 1.30659%
BRANCH_INDIRECT: 37098 0.074196%
BRANCH_CONDITIONAL: 8897819 17.7956%
BRANCH_DIRECT_CALL: 992620 1.98524%
BRANCH_INDIRECT_CALL: 93046 0.186092%
BRANCH_RETURN: 1085674 2.17135%
BRANCH_OTHER: 0 0%

