Initialize SIGNATURE TABLE
ST_SET: 1
ST_WAY: 256
ST_TAG_BIT: 16
ST_TAG_MASK: ffff

Initialize PATTERN TABLE
PT_SET: 512
PT_WAY: 4
SIG_DELTA_BIT: 7
C_SIG_BIT: 4
C_DELTA_BIT: 4

Initialize PREFETCH FILTER
FILTER_SET: 1024

*** ChampSim Multicore Out-of-Order Simulator ***

Warmup Instructions: 50000000
Simulation Instructions: 50000000
Number of CPUs: 1
LLC sets: 2048
LLC ways: 16
Off-chip DRAM Size: 4096 MB Channels: 1 Width: 64-bit Data Rate: 3200 MT/s

CPU 0 runs /Users/brandon/Documents/CoursesWi22/CSE240C/Homework1/ChampSim/ipc1_public/spec_perlbench_001.champsimtrace.xz
L1I D-JOLT instruction prefetcher has been constructed!
CPU 0 L1D next line prefetcher
Heartbeat CPU 0 instructions: 10000000 cycles: 3276032 heartbeat IPC: 3.05247 cumulative IPC: 3.05247 (Simulation time: 0 hr 1 min 30 sec) 
Heartbeat CPU 0 instructions: 20000000 cycles: 6541546 heartbeat IPC: 3.0623 cumulative IPC: 3.05738 (Simulation time: 0 hr 3 min 11 sec) 
Heartbeat CPU 0 instructions: 30000002 cycles: 9860011 heartbeat IPC: 3.01344 cumulative IPC: 3.04259 (Simulation time: 0 hr 4 min 53 sec) 
Heartbeat CPU 0 instructions: 40000002 cycles: 13116178 heartbeat IPC: 3.0711 cumulative IPC: 3.04967 (Simulation time: 0 hr 6 min 28 sec) 
Heartbeat CPU 0 instructions: 50000001 cycles: 16390617 heartbeat IPC: 3.05396 cumulative IPC: 3.05053 (Simulation time: 0 hr 8 min 14 sec) 

Warmup complete CPU 0 instructions: 50000001 cycles: 16390617 (Simulation time: 0 hr 8 min 14 sec) 

Heartbeat CPU 0 instructions: 60000001 cycles: 24698256 heartbeat IPC: 1.20371 cumulative IPC: 1.20371 (Simulation time: 0 hr 10 min 27 sec) 
Heartbeat CPU 0 instructions: 70000003 cycles: 32836899 heartbeat IPC: 1.22871 cumulative IPC: 1.21608 (Simulation time: 0 hr 18 min 47 sec) 
Heartbeat CPU 0 instructions: 80000000 cycles: 41286803 heartbeat IPC: 1.18345 cumulative IPC: 1.205 (Simulation time: 0 hr 23 min 24 sec) 
Heartbeat CPU 0 instructions: 90000000 cycles: 47058481 heartbeat IPC: 1.7326 cumulative IPC: 1.3043 (Simulation time: 0 hr 31 min 10 sec) 
Heartbeat CPU 0 instructions: 100000002 cycles: 52976506 heartbeat IPC: 1.68975 cumulative IPC: 1.36665 (Simulation time: 0 hr 32 min 39 sec) 
Finished CPU 0 instructions: 50000001 cycles: 36585889 cumulative IPC: 1.36665 (Simulation time: 0 hr 32 min 39 sec) 

ChampSim completed all CPUs

Region of Interest Statistics

CPU 0 cumulative IPC: 1.36665 instructions: 50000001 cycles: 36585889
L1D TOTAL     ACCESS:   20678476  HIT:   20263394  MISS:     415082
L1D LOAD      ACCESS:    7169151  HIT:    6955450  MISS:     213701
L1D RFO       ACCESS:    6542089  HIT:    6523572  MISS:      18517
L1D PREFETCH  ACCESS:    6967236  HIT:    6784372  MISS:     182864
L1D WRITEBACK ACCESS:          0  HIT:          0  MISS:          0
L1D PREFETCH  REQUESTED:    7184913  ISSUED:    7068464  USEFUL:      55192  USELESS:     127667
L1D AVERAGE MISS LATENCY: 59.7118 cycles
L1I TOTAL     ACCESS:   15924796  HIT:   14566080  MISS:    1358716
L1I LOAD      ACCESS:    9180883  HIT:    9129469  MISS:      51414
L1I RFO       ACCESS:          0  HIT:          0  MISS:          0
L1I PREFETCH  ACCESS:    6743913  HIT:    5436611  MISS:    1307302
L1I WRITEBACK ACCESS:          0  HIT:          0  MISS:          0
L1I PREFETCH  REQUESTED:    7004703  ISSUED:    6870386  USEFUL:     574357  USELESS:     732979
L1I AVERAGE MISS LATENCY: 16.4202 cycles
L2C TOTAL     ACCESS:    2510657  HIT:    2338647  MISS:     172010
L2C LOAD      ACCESS:     256012  HIT:     174589  MISS:      81423
L2C RFO       ACCESS:      18266  HIT:      12620  MISS:       5646
L2C PREFETCH  ACCESS:    2157426  HIT:    2072969  MISS:      84457
L2C WRITEBACK ACCESS:      78953  HIT:      78469  MISS:        484
L2C PREFETCH  REQUESTED:    1361742  ISSUED:    1361589  USEFUL:       7089  USELESS:      77368
L2C AVERAGE MISS LATENCY: 118.797 cycles
LLC TOTAL     ACCESS:     436472  HIT:     293183  MISS:     143289
LLC LOAD      ACCESS:      81420  HIT:      30988  MISS:      50432
LLC RFO       ACCESS:       5646  HIT:       2615  MISS:       3031
LLC PREFETCH  ACCESS:     322972  HIT:     233610  MISS:      89362
LLC WRITEBACK ACCESS:      26434  HIT:      25970  MISS:        464
LLC PREFETCH  REQUESTED:          0  ISSUED:          0  USEFUL:      12897  USELESS:      76939
LLC AVERAGE MISS LATENCY: 159.712 cycles
Major fault: 0 Minor fault: 6365
CPU 0 L1D next line prefetcher final stats

DRAM Statistics
 CHANNEL 0
 RQ ROW_BUFFER_HIT:      32728  ROW_BUFFER_MISS:     110096
 DBUS_CONGESTED:      55334
 WQ ROW_BUFFER_HIT:       4629  ROW_BUFFER_MISS:      12709  FULL:          0

 AVG_CONGESTED_CYCLE: 4

CPU 0 Branch Prediction Accuracy: 98.7418% MPKI: 2.47758 Average ROB Occupancy at Mispredict: 79.7512

Branch types
NOT_BRANCH: 40154100 80.3082%
BRANCH_DIRECT_JUMP: 817094 1.63419%
BRANCH_INDIRECT: 303787 0.607574%
BRANCH_CONDITIONAL: 7492103 14.9842%
BRANCH_DIRECT_CALL: 471777 0.943554%
BRANCH_INDIRECT_CALL: 144546 0.289092%
BRANCH_RETURN: 616324 1.23265%
BRANCH_OTHER: 0 0%

