Initialize SIGNATURE TABLE
ST_SET: 1
ST_WAY: 256
ST_TAG_BIT: 16
ST_TAG_MASK: ffff

Initialize PATTERN TABLE
PT_SET: 512
PT_WAY: 4
SIG_DELTA_BIT: 7
C_SIG_BIT: 4
C_DELTA_BIT: 4

Initialize PREFETCH FILTER
FILTER_SET: 1024

*** ChampSim Multicore Out-of-Order Simulator ***

Warmup Instructions: 50000000
Simulation Instructions: 50000000
Number of CPUs: 1
LLC sets: 2048
LLC ways: 16
Off-chip DRAM Size: 4096 MB Channels: 1 Width: 64-bit Data Rate: 3200 MT/s

CPU 0 runs /Users/brandon/Documents/CoursesWi22/CSE240C/Homework1/ChampSim/ipc1_public/client_006.champsimtrace.xz
CPU 0 L1I next line prefetcher
CPU 0 L1D next line prefetcher
Heartbeat CPU 0 instructions: 10000003 cycles: 4267616 heartbeat IPC: 2.34323 cumulative IPC: 2.34323 (Simulation time: 0 hr 1 min 41 sec) 
Heartbeat CPU 0 instructions: 20000000 cycles: 8307876 heartbeat IPC: 2.47509 cumulative IPC: 2.40735 (Simulation time: 0 hr 3 min 38 sec) 
Heartbeat CPU 0 instructions: 30000003 cycles: 11372293 heartbeat IPC: 3.26326 cumulative IPC: 2.63799 (Simulation time: 0 hr 5 min 14 sec) 
Heartbeat CPU 0 instructions: 40000000 cycles: 14717705 heartbeat IPC: 2.98917 cumulative IPC: 2.71781 (Simulation time: 0 hr 7 min 2 sec) 
Heartbeat CPU 0 instructions: 50000003 cycles: 18822535 heartbeat IPC: 2.43616 cumulative IPC: 2.65639 (Simulation time: 0 hr 9 min 7 sec) 

Warmup complete CPU 0 instructions: 50000003 cycles: 18822535 (Simulation time: 0 hr 9 min 7 sec) 

Heartbeat CPU 0 instructions: 60000001 cycles: 26660037 heartbeat IPC: 1.27592 cumulative IPC: 1.27592 (Simulation time: 0 hr 10 min 50 sec) 
Heartbeat CPU 0 instructions: 70000003 cycles: 36359641 heartbeat IPC: 1.03097 cumulative IPC: 1.14044 (Simulation time: 0 hr 12 min 39 sec) 
Heartbeat CPU 0 instructions: 80000002 cycles: 44697135 heartbeat IPC: 1.1994 cumulative IPC: 1.15944 (Simulation time: 0 hr 14 min 17 sec) 
Heartbeat CPU 0 instructions: 90000003 cycles: 52533907 heartbeat IPC: 1.27604 cumulative IPC: 1.18654 (Simulation time: 0 hr 15 min 44 sec) 
Heartbeat CPU 0 instructions: 100000001 cycles: 60719815 heartbeat IPC: 1.22161 cumulative IPC: 1.19339 (Simulation time: 0 hr 17 min 21 sec) 
Finished CPU 0 instructions: 50000002 cycles: 41897281 cumulative IPC: 1.19339 (Simulation time: 0 hr 17 min 21 sec) 

ChampSim completed all CPUs

Region of Interest Statistics

CPU 0 cumulative IPC: 1.19339 instructions: 50000002 cycles: 41897281
L1D TOTAL     ACCESS:   16599393  HIT:   15872285  MISS:     727108
L1D LOAD      ACCESS:    6368572  HIT:    5962559  MISS:     406013
L1D RFO       ACCESS:    4333102  HIT:    4290481  MISS:      42621
L1D PREFETCH  ACCESS:    5897719  HIT:    5619245  MISS:     278474
L1D WRITEBACK ACCESS:          0  HIT:          0  MISS:          0
L1D PREFETCH  REQUESTED:    6409742  ISSUED:    6229142  USEFUL:     117425  USELESS:     160923
L1D AVERAGE MISS LATENCY: 81.9325 cycles
L1I TOTAL     ACCESS:   10507595  HIT:    9455231  MISS:    1052364
L1I LOAD      ACCESS:    8466033  HIT:    8441941  MISS:      24092
L1I RFO       ACCESS:          0  HIT:          0  MISS:          0
L1I PREFETCH  ACCESS:    2041562  HIT:    1013290  MISS:    1028272
L1I WRITEBACK ACCESS:          0  HIT:          0  MISS:          0
L1I PREFETCH  REQUESTED:    2064798  ISSUED:    2062904  USEFUL:     769950  USELESS:     258268
L1I AVERAGE MISS LATENCY: 23.288 cycles
L2C TOTAL     ACCESS:    2449733  HIT:    1899383  MISS:     550350
L2C LOAD      ACCESS:     358142  HIT:     118776  MISS:     239366
L2C RFO       ACCESS:      42362  HIT:      12424  MISS:      29938
L2C PREFETCH  ACCESS:    1873247  HIT:    1592940  MISS:     280307
L2C WRITEBACK ACCESS:     175982  HIT:     175243  MISS:        739
L2C PREFETCH  REQUESTED:    3080573  ISSUED:    3056567  USEFUL:      12536  USELESS:     268409
L2C AVERAGE MISS LATENCY: 116.75 cycles
LLC TOTAL     ACCESS:    1376601  HIT:     988148  MISS:     388453
LLC LOAD      ACCESS:     229555  HIT:     135330  MISS:      94225
LLC RFO       ACCESS:      29936  HIT:       5173  MISS:      24763
LLC PREFETCH  ACCESS:     982614  HIT:     713676  MISS:     268938
LLC WRITEBACK ACCESS:     134496  HIT:     133969  MISS:        527
LLC PREFETCH  REQUESTED:          0  ISSUED:          0  USEFUL:      41978  USELESS:     230593
LLC AVERAGE MISS LATENCY: 199.696 cycles
Major fault: 0 Minor fault: 10527
I-Shadow cache 408 bytes
Touched + WorthPF tables 24576 bytes 
MMA filter 174 bytes 
FNL filter 272 bytes 
TOTAL PREFETCHER STORAGE SIZE: 98134 bytes
CPU 0 L1I next line prefetcher final stats
CPU 0 L1D next line prefetcher final stats

DRAM Statistics
 CHANNEL 0
 RQ ROW_BUFFER_HIT:     100755  ROW_BUFFER_MISS:     287160
 DBUS_CONGESTED:     228742
 WQ ROW_BUFFER_HIT:      21161  ROW_BUFFER_MISS:      93230  FULL:          0

 AVG_CONGESTED_CYCLE: 5

CPU 0 Branch Prediction Accuracy: 98.1683% MPKI: 3.13642 Average ROB Occupancy at Mispredict: 87.0777

Branch types
NOT_BRANCH: 41438057 82.8761%
BRANCH_DIRECT_JUMP: 413829 0.827658%
BRANCH_INDIRECT: 47058 0.094116%
BRANCH_CONDITIONAL: 6843835 13.6877%
BRANCH_DIRECT_CALL: 536885 1.07377%
BRANCH_INDIRECT_CALL: 90642 0.181284%
BRANCH_RETURN: 629329 1.25866%
BRANCH_OTHER: 0 0%

