Initialize SIGNATURE TABLE
ST_SET: 1
ST_WAY: 256
ST_TAG_BIT: 16
ST_TAG_MASK: ffff

Initialize PATTERN TABLE
PT_SET: 512
PT_WAY: 4
SIG_DELTA_BIT: 7
C_SIG_BIT: 4
C_DELTA_BIT: 4

Initialize PREFETCH FILTER
FILTER_SET: 1024

*** ChampSim Multicore Out-of-Order Simulator ***

Warmup Instructions: 50000000
Simulation Instructions: 50000000
Number of CPUs: 1
LLC sets: 2048
LLC ways: 16
Off-chip DRAM Size: 4096 MB Channels: 1 Width: 64-bit Data Rate: 3200 MT/s

CPU 0 runs /Users/brandon/Documents/CoursesWi22/CSE240C/Homework1/ChampSim/ipc1_public/client_004.champsimtrace.xz
CPU 0 L1I next line prefetcher
CPU 0 L1D next line prefetcher
Heartbeat CPU 0 instructions: 10000000 cycles: 3592266 heartbeat IPC: 2.78376 cumulative IPC: 2.78376 (Simulation time: 0 hr 1 min 31 sec) 
Heartbeat CPU 0 instructions: 20000003 cycles: 7056736 heartbeat IPC: 2.88645 cumulative IPC: 2.83417 (Simulation time: 0 hr 3 min 12 sec) 
Heartbeat CPU 0 instructions: 30000000 cycles: 10647318 heartbeat IPC: 2.78506 cumulative IPC: 2.81761 (Simulation time: 0 hr 5 min 1 sec) 
Heartbeat CPU 0 instructions: 40000003 cycles: 14327855 heartbeat IPC: 2.717 cumulative IPC: 2.79176 (Simulation time: 0 hr 6 min 57 sec) 
Heartbeat CPU 0 instructions: 50000001 cycles: 17846056 heartbeat IPC: 2.84236 cumulative IPC: 2.80174 (Simulation time: 0 hr 8 min 57 sec) 

Warmup complete CPU 0 instructions: 50000001 cycles: 17846056 (Simulation time: 0 hr 8 min 57 sec) 

Heartbeat CPU 0 instructions: 60000002 cycles: 25660635 heartbeat IPC: 1.27966 cumulative IPC: 1.27966 (Simulation time: 0 hr 10 min 36 sec) 
Heartbeat CPU 0 instructions: 70000001 cycles: 33523917 heartbeat IPC: 1.27173 cumulative IPC: 1.27568 (Simulation time: 0 hr 12 min 17 sec) 
Heartbeat CPU 0 instructions: 80000002 cycles: 42211328 heartbeat IPC: 1.15109 cumulative IPC: 1.23126 (Simulation time: 0 hr 13 min 55 sec) 
Heartbeat CPU 0 instructions: 90000000 cycles: 50319773 heartbeat IPC: 1.23328 cumulative IPC: 1.23177 (Simulation time: 0 hr 15 min 30 sec) 
Heartbeat CPU 0 instructions: 100000001 cycles: 58183419 heartbeat IPC: 1.27167 cumulative IPC: 1.23955 (Simulation time: 0 hr 17 min 12 sec) 
Finished CPU 0 instructions: 50000000 cycles: 40337363 cumulative IPC: 1.23955 (Simulation time: 0 hr 17 min 12 sec) 

ChampSim completed all CPUs

Region of Interest Statistics

CPU 0 cumulative IPC: 1.23955 instructions: 50000000 cycles: 40337363
L1D TOTAL     ACCESS:   21987425  HIT:   21098412  MISS:     889013
L1D LOAD      ACCESS:    8733414  HIT:    8337660  MISS:     395754
L1D RFO       ACCESS:    4812608  HIT:    4691253  MISS:     121355
L1D PREFETCH  ACCESS:    8441403  HIT:    8069499  MISS:     371904
L1D WRITEBACK ACCESS:          0  HIT:          0  MISS:          0
L1D PREFETCH  REQUESTED:    8772471  ISSUED:    8613369  USEFUL:     133370  USELESS:     238542
L1D AVERAGE MISS LATENCY: 29.8157 cycles
L1I TOTAL     ACCESS:   10695443  HIT:    9890173  MISS:     805270
L1I LOAD      ACCESS:    9389296  HIT:    9202464  MISS:     186832
L1I RFO       ACCESS:          0  HIT:          0  MISS:          0
L1I PREFETCH  ACCESS:    1306147  HIT:     687709  MISS:     618438
L1I WRITEBACK ACCESS:          0  HIT:          0  MISS:          0
L1I PREFETCH  REQUESTED:    1387016  ISSUED:    1386854  USEFUL:     402196  USELESS:     216259
L1I AVERAGE MISS LATENCY: 27.5987 cycles
L2C TOTAL     ACCESS:    2527702  HIT:    2231385  MISS:     296317
L2C LOAD      ACCESS:     541257  HIT:     470311  MISS:      70946
L2C RFO       ACCESS:     117431  HIT:      46276  MISS:      71155
L2C PREFETCH  ACCESS:    1647007  HIT:    1493415  MISS:     153592
L2C WRITEBACK ACCESS:     222007  HIT:     221383  MISS:        624
L2C PREFETCH  REQUESTED:    1835499  ISSUED:    1835072  USEFUL:      26543  USELESS:     125857
L2C AVERAGE MISS LATENCY: 87.712 cycles
LLC TOTAL     ACCESS:     723017  HIT:     586022  MISS:     136995
LLC LOAD      ACCESS:      70926  HIT:      51103  MISS:      19823
LLC RFO       ACCESS:      71154  HIT:      40204  MISS:      30950
LLC PREFETCH  ACCESS:     481211  HIT:     395324  MISS:      85887
LLC WRITEBACK ACCESS:      99726  HIT:      99391  MISS:        335
LLC PREFETCH  REQUESTED:          0  ISSUED:          0  USEFUL:      19137  USELESS:      66981
LLC AVERAGE MISS LATENCY: 184.628 cycles
Major fault: 0 Minor fault: 3981
I-Shadow cache 408 bytes
Touched + WorthPF tables 24576 bytes 
MMA filter 174 bytes 
FNL filter 272 bytes 
TOTAL PREFETCHER STORAGE SIZE: 98134 bytes
CPU 0 L1I next line prefetcher final stats
CPU 0 L1D next line prefetcher final stats

DRAM Statistics
 CHANNEL 0
 RQ ROW_BUFFER_HIT:      34143  ROW_BUFFER_MISS:     102496
 DBUS_CONGESTED:      72903
 WQ ROW_BUFFER_HIT:       8284  ROW_BUFFER_MISS:      36989  FULL:          0

 AVG_CONGESTED_CYCLE: 6

CPU 0 Branch Prediction Accuracy: 94.1242% MPKI: 11.6089 Average ROB Occupancy at Mispredict: 54.9245

Branch types
NOT_BRANCH: 40121080 80.2422%
BRANCH_DIRECT_JUMP: 644555 1.28911%
BRANCH_INDIRECT: 201946 0.403892%
BRANCH_CONDITIONAL: 7003557 14.0071%
BRANCH_DIRECT_CALL: 564821 1.12964%
BRANCH_INDIRECT_CALL: 445012 0.890024%
BRANCH_RETURN: 1018716 2.03743%
BRANCH_OTHER: 0 0%

