Initialize SIGNATURE TABLE
ST_SET: 1
ST_WAY: 256
ST_TAG_BIT: 16
ST_TAG_MASK: ffff

Initialize PATTERN TABLE
PT_SET: 512
PT_WAY: 4
SIG_DELTA_BIT: 7
C_SIG_BIT: 4
C_DELTA_BIT: 4

Initialize PREFETCH FILTER
FILTER_SET: 1024

*** ChampSim Multicore Out-of-Order Simulator ***

Warmup Instructions: 50000000
Simulation Instructions: 50000000
Number of CPUs: 1
LLC sets: 2048
LLC ways: 16
Off-chip DRAM Size: 4096 MB Channels: 1 Width: 64-bit Data Rate: 3200 MT/s

CPU 0 runs /Users/brandon/Documents/CoursesWi22/CSE240C/Homework1/ChampSim/ipc1_public/server_025.champsimtrace.xz
CPU 0 L1I next line prefetcher
CPU 0 L1D next line prefetcher
Heartbeat CPU 0 instructions: 10000003 cycles: 3527854 heartbeat IPC: 2.83459 cumulative IPC: 2.83459 (Simulation time: 0 hr 2 min 3 sec) 
Heartbeat CPU 0 instructions: 20000000 cycles: 7063578 heartbeat IPC: 2.82827 cumulative IPC: 2.83143 (Simulation time: 0 hr 4 min 17 sec) 
Heartbeat CPU 0 instructions: 30000001 cycles: 10590768 heartbeat IPC: 2.83512 cumulative IPC: 2.83266 (Simulation time: 0 hr 6 min 21 sec) 
Heartbeat CPU 0 instructions: 40000003 cycles: 14123921 heartbeat IPC: 2.83033 cumulative IPC: 2.83207 (Simulation time: 0 hr 8 min 21 sec) 
Heartbeat CPU 0 instructions: 50000001 cycles: 17655285 heartbeat IPC: 2.83177 cumulative IPC: 2.83201 (Simulation time: 0 hr 10 min 13 sec) 

Warmup complete CPU 0 instructions: 50000001 cycles: 17655285 (Simulation time: 0 hr 10 min 13 sec) 

Heartbeat CPU 0 instructions: 60000002 cycles: 24535497 heartbeat IPC: 1.45344 cumulative IPC: 1.45344 (Simulation time: 0 hr 12 min 9 sec) 
Heartbeat CPU 0 instructions: 70000000 cycles: 31529159 heartbeat IPC: 1.42987 cumulative IPC: 1.44156 (Simulation time: 0 hr 14 min 14 sec) 
Heartbeat CPU 0 instructions: 80000002 cycles: 38439967 heartbeat IPC: 1.44701 cumulative IPC: 1.44337 (Simulation time: 0 hr 16 min 4 sec) 
Heartbeat CPU 0 instructions: 90000001 cycles: 44998848 heartbeat IPC: 1.52465 cumulative IPC: 1.46287 (Simulation time: 0 hr 17 min 49 sec) 
Heartbeat CPU 0 instructions: 100000003 cycles: 51239005 heartbeat IPC: 1.60252 cumulative IPC: 1.48882 (Simulation time: 0 hr 19 min 13 sec) 
Finished CPU 0 instructions: 50000002 cycles: 33583720 cumulative IPC: 1.48882 (Simulation time: 0 hr 19 min 13 sec) 

ChampSim completed all CPUs

Region of Interest Statistics

CPU 0 cumulative IPC: 1.48882 instructions: 50000002 cycles: 33583720
L1D TOTAL     ACCESS:   19991248  HIT:   18565964  MISS:    1425284
L1D LOAD      ACCESS:    6961868  HIT:    6342101  MISS:     619767
L1D RFO       ACCESS:    6381899  HIT:    6133939  MISS:     247960
L1D PREFETCH  ACCESS:    6647481  HIT:    6089924  MISS:     557557
L1D WRITEBACK ACCESS:          0  HIT:          0  MISS:          0
L1D PREFETCH  REQUESTED:    7002968  ISSUED:    6828733  USEFUL:     130326  USELESS:     427224
L1D AVERAGE MISS LATENCY: 24.0405 cycles
L1I TOTAL     ACCESS:   14948491  HIT:   11353002  MISS:    3595489
L1I LOAD      ACCESS:    9522684  HIT:    9465030  MISS:      57654
L1I RFO       ACCESS:          0  HIT:          0  MISS:          0
L1I PREFETCH  ACCESS:    5425807  HIT:    1887972  MISS:    3537835
L1I WRITEBACK ACCESS:          0  HIT:          0  MISS:          0
L1I PREFETCH  REQUESTED:    5581765  ISSUED:    5559086  USEFUL:    2484418  USELESS:    1053431
L1I AVERAGE MISS LATENCY: 19.609 cycles
L2C TOTAL     ACCESS:    6641592  HIT:    5817813  MISS:     823779
L2C LOAD      ACCESS:     639075  HIT:     503682  MISS:     135393
L2C RFO       ACCESS:     246479  HIT:     168631  MISS:      77848
L2C PREFETCH  ACCESS:    5259281  HIT:    4652960  MISS:     606321
L2C WRITEBACK ACCESS:     496757  HIT:     492540  MISS:       4217
L2C PREFETCH  REQUESTED:    6139063  ISSUED:    6126186  USEFUL:      14554  USELESS:     591437
L2C AVERAGE MISS LATENCY: 38.0653 cycles
LLC TOTAL     ACCESS:    2389718  HIT:    2360884  MISS:      28834
LLC LOAD      ACCESS:     135263  HIT:     132008  MISS:       3255
LLC RFO       ACCESS:      77848  HIT:      67146  MISS:      10702
LLC PREFETCH  ACCESS:    2038274  HIT:    2023593  MISS:      14681
LLC WRITEBACK ACCESS:     138333  HIT:     138137  MISS:        196
LLC PREFETCH  REQUESTED:          0  ISSUED:          0  USEFUL:       1232  USELESS:      12563
LLC AVERAGE MISS LATENCY: 179.15 cycles
Major fault: 0 Minor fault: 2458
I-Shadow cache 408 bytes
Touched + WorthPF tables 24576 bytes 
MMA filter 174 bytes 
FNL filter 272 bytes 
TOTAL PREFETCHER STORAGE SIZE: 98134 bytes
CPU 0 L1I next line prefetcher final stats
CPU 0 L1D next line prefetcher final stats

DRAM Statistics
 CHANNEL 0
 RQ ROW_BUFFER_HIT:       9214  ROW_BUFFER_MISS:      19417
 DBUS_CONGESTED:      19351
 WQ ROW_BUFFER_HIT:       1396  ROW_BUFFER_MISS:      11797  FULL:          0

 AVG_CONGESTED_CYCLE: 6

CPU 0 Branch Prediction Accuracy: 99.8142% MPKI: 0.34676 Average ROB Occupancy at Mispredict: 203.487

Branch types
NOT_BRANCH: 40668884 81.3378%
BRANCH_DIRECT_JUMP: 531700 1.0634%
BRANCH_INDIRECT: 199025 0.39805%
BRANCH_CONDITIONAL: 6211491 12.423%
BRANCH_DIRECT_CALL: 1010911 2.02182%
BRANCH_INDIRECT_CALL: 183501 0.367002%
BRANCH_RETURN: 1194415 2.38883%
BRANCH_OTHER: 0 0%

