Initialize SIGNATURE TABLE
ST_SET: 1
ST_WAY: 256
ST_TAG_BIT: 16
ST_TAG_MASK: ffff

Initialize PATTERN TABLE
PT_SET: 512
PT_WAY: 4
SIG_DELTA_BIT: 7
C_SIG_BIT: 4
C_DELTA_BIT: 4

Initialize PREFETCH FILTER
FILTER_SET: 1024

*** ChampSim Multicore Out-of-Order Simulator ***

Warmup Instructions: 50000000
Simulation Instructions: 50000000
Number of CPUs: 1
LLC sets: 2048
LLC ways: 16
Off-chip DRAM Size: 4096 MB Channels: 1 Width: 64-bit Data Rate: 3200 MT/s

CPU 0 runs /Users/brandon/Documents/CoursesWi22/CSE240C/Homework1/ChampSim/ipc1_public/server_023.champsimtrace.xz
CPU 0 L1I next line prefetcher
CPU 0 L1D next line prefetcher
Heartbeat CPU 0 instructions: 10000000 cycles: 3500099 heartbeat IPC: 2.85706 cumulative IPC: 2.85706 (Simulation time: 0 hr 2 min 0 sec) 
Heartbeat CPU 0 instructions: 20000000 cycles: 6999061 heartbeat IPC: 2.85799 cumulative IPC: 2.85753 (Simulation time: 0 hr 4 min 11 sec) 
Heartbeat CPU 0 instructions: 30000001 cycles: 10491239 heartbeat IPC: 2.86354 cumulative IPC: 2.85953 (Simulation time: 0 hr 6 min 11 sec) 
Heartbeat CPU 0 instructions: 40000003 cycles: 13989685 heartbeat IPC: 2.85841 cumulative IPC: 2.85925 (Simulation time: 0 hr 8 min 10 sec) 
Heartbeat CPU 0 instructions: 50000001 cycles: 17489663 heartbeat IPC: 2.85716 cumulative IPC: 2.85883 (Simulation time: 0 hr 9 min 59 sec) 

Warmup complete CPU 0 instructions: 50000001 cycles: 17489663 (Simulation time: 0 hr 9 min 59 sec) 

Heartbeat CPU 0 instructions: 60000002 cycles: 24246551 heartbeat IPC: 1.47997 cumulative IPC: 1.47997 (Simulation time: 0 hr 11 min 50 sec) 
Heartbeat CPU 0 instructions: 70000002 cycles: 31204694 heartbeat IPC: 1.43717 cumulative IPC: 1.45825 (Simulation time: 0 hr 13 min 47 sec) 
Heartbeat CPU 0 instructions: 80000000 cycles: 38084161 heartbeat IPC: 1.4536 cumulative IPC: 1.4567 (Simulation time: 0 hr 15 min 32 sec) 
Heartbeat CPU 0 instructions: 90000000 cycles: 44985194 heartbeat IPC: 1.44906 cumulative IPC: 1.45478 (Simulation time: 0 hr 17 min 4 sec) 
Heartbeat CPU 0 instructions: 100000001 cycles: 51838457 heartbeat IPC: 1.45916 cumulative IPC: 1.45566 (Simulation time: 0 hr 18 min 40 sec) 
Finished CPU 0 instructions: 50000000 cycles: 34348794 cumulative IPC: 1.45566 (Simulation time: 0 hr 18 min 40 sec) 

ChampSim completed all CPUs

Region of Interest Statistics

CPU 0 cumulative IPC: 1.45566 instructions: 50000000 cycles: 34348794
L1D TOTAL     ACCESS:   19360394  HIT:   17893656  MISS:    1466738
L1D LOAD      ACCESS:    6849430  HIT:    6188611  MISS:     660819
L1D RFO       ACCESS:    5982574  HIT:    5720892  MISS:     261682
L1D PREFETCH  ACCESS:    6528390  HIT:    5984153  MISS:     544237
L1D WRITEBACK ACCESS:          0  HIT:          0  MISS:          0
L1D PREFETCH  REQUESTED:    6899768  ISSUED:    6778532  USEFUL:     129995  USELESS:     414249
L1D AVERAGE MISS LATENCY: 25.1843 cycles
L1I TOTAL     ACCESS:   14467835  HIT:   11011286  MISS:    3456549
L1I LOAD      ACCESS:    9439081  HIT:    9370153  MISS:      68928
L1I RFO       ACCESS:          0  HIT:          0  MISS:          0
L1I PREFETCH  ACCESS:    5028754  HIT:    1641133  MISS:    3387621
L1I WRITEBACK ACCESS:          0  HIT:          0  MISS:          0
L1I PREFETCH  REQUESTED:    5166425  ISSUED:    5150845  USEFUL:    2436139  USELESS:     951552
L1I AVERAGE MISS LATENCY: 19.0567 cycles
L2C TOTAL     ACCESS:    6539783  HIT:    5768186  MISS:     771597
L2C LOAD      ACCESS:     659251  HIT:     516807  MISS:     142444
L2C RFO       ACCESS:     259396  HIT:     171136  MISS:      88260
L2C PREFETCH  ACCESS:    5121899  HIT:    4584493  MISS:     537406
L2C WRITEBACK ACCESS:     499237  HIT:     495750  MISS:       3487
L2C PREFETCH  REQUESTED:    6050391  ISSUED:    6040614  USEFUL:      17544  USELESS:     520023
L2C AVERAGE MISS LATENCY: 41.441 cycles
LLC TOTAL     ACCESS:    2326161  HIT:    2277229  MISS:      48932
LLC LOAD      ACCESS:     142162  HIT:     136038  MISS:       6124
LLC RFO       ACCESS:      88253  HIT:      70428  MISS:      17825
LLC PREFETCH  ACCESS:    1944931  HIT:    1920173  MISS:      24758
LLC WRITEBACK ACCESS:     150815  HIT:     150590  MISS:        225
LLC PREFETCH  REQUESTED:          0  ISSUED:          0  USEFUL:       2555  USELESS:      21986
LLC AVERAGE MISS LATENCY: 182.906 cycles
Major fault: 0 Minor fault: 2767
I-Shadow cache 408 bytes
Touched + WorthPF tables 24576 bytes 
MMA filter 174 bytes 
FNL filter 272 bytes 
TOTAL PREFETCHER STORAGE SIZE: 98134 bytes
CPU 0 L1I next line prefetcher final stats
CPU 0 L1D next line prefetcher final stats

DRAM Statistics
 CHANNEL 0
 RQ ROW_BUFFER_HIT:      15027  ROW_BUFFER_MISS:      33658
 DBUS_CONGESTED:      32664
 WQ ROW_BUFFER_HIT:       2317  ROW_BUFFER_MISS:      19071  FULL:          0

 AVG_CONGESTED_CYCLE: 6

CPU 0 Branch Prediction Accuracy: 99.6798% MPKI: 0.58608 Average ROB Occupancy at Mispredict: 146.63

Branch types
NOT_BRANCH: 40848334 81.6967%
BRANCH_DIRECT_JUMP: 548372 1.09674%
BRANCH_INDIRECT: 189802 0.379604%
BRANCH_CONDITIONAL: 6372772 12.7455%
BRANCH_DIRECT_CALL: 862207 1.72441%
BRANCH_INDIRECT_CALL: 158149 0.316298%
BRANCH_RETURN: 1020345 2.04069%
BRANCH_OTHER: 0 0%

