Initialize SIGNATURE TABLE
ST_SET: 1
ST_WAY: 256
ST_TAG_BIT: 16
ST_TAG_MASK: ffff

Initialize PATTERN TABLE
PT_SET: 512
PT_WAY: 4
SIG_DELTA_BIT: 7
C_SIG_BIT: 4
C_DELTA_BIT: 4

Initialize PREFETCH FILTER
FILTER_SET: 1024

*** ChampSim Multicore Out-of-Order Simulator ***

Warmup Instructions: 50000000
Simulation Instructions: 50000000
Number of CPUs: 1
LLC sets: 2048
LLC ways: 16
Off-chip DRAM Size: 4096 MB Channels: 1 Width: 64-bit Data Rate: 3200 MT/s

CPU 0 runs /Users/brandon/Documents/CoursesWi22/CSE240C/Homework1/ChampSim/ipc1_public/server_039.champsimtrace.xz
CPU 0 L1I next line prefetcher
CPU 0 L1D next line prefetcher
Heartbeat CPU 0 instructions: 10000003 cycles: 3451534 heartbeat IPC: 2.89726 cumulative IPC: 2.89726 (Simulation time: 0 hr 2 min 2 sec) 
Heartbeat CPU 0 instructions: 20000002 cycles: 6896093 heartbeat IPC: 2.90313 cumulative IPC: 2.90019 (Simulation time: 0 hr 4 min 16 sec) 
Heartbeat CPU 0 instructions: 30000001 cycles: 10342483 heartbeat IPC: 2.90159 cumulative IPC: 2.90066 (Simulation time: 0 hr 6 min 18 sec) 
Heartbeat CPU 0 instructions: 40000002 cycles: 13784275 heartbeat IPC: 2.90546 cumulative IPC: 2.90186 (Simulation time: 0 hr 8 min 17 sec) 
Heartbeat CPU 0 instructions: 50000001 cycles: 17225415 heartbeat IPC: 2.90601 cumulative IPC: 2.90269 (Simulation time: 0 hr 10 min 7 sec) 

Warmup complete CPU 0 instructions: 50000001 cycles: 17225415 (Simulation time: 0 hr 10 min 7 sec) 

Heartbeat CPU 0 instructions: 60000000 cycles: 22992568 heartbeat IPC: 1.73396 cumulative IPC: 1.73396 (Simulation time: 0 hr 11 min 56 sec) 
Heartbeat CPU 0 instructions: 70000000 cycles: 28757145 heartbeat IPC: 1.73473 cumulative IPC: 1.73435 (Simulation time: 0 hr 13 min 54 sec) 
Heartbeat CPU 0 instructions: 80000000 cycles: 34517420 heartbeat IPC: 1.73603 cumulative IPC: 1.73491 (Simulation time: 0 hr 15 min 38 sec) 
Heartbeat CPU 0 instructions: 90000001 cycles: 40285255 heartbeat IPC: 1.73375 cumulative IPC: 1.73462 (Simulation time: 0 hr 17 min 20 sec) 
Heartbeat CPU 0 instructions: 100000002 cycles: 46061181 heartbeat IPC: 1.73132 cumulative IPC: 1.73396 (Simulation time: 0 hr 18 min 53 sec) 
Finished CPU 0 instructions: 50000001 cycles: 28835766 cumulative IPC: 1.73396 (Simulation time: 0 hr 18 min 53 sec) 

ChampSim completed all CPUs

Region of Interest Statistics

CPU 0 cumulative IPC: 1.73396 instructions: 50000001 cycles: 28835766
L1D TOTAL     ACCESS:   19873725  HIT:   19379041  MISS:     494684
L1D LOAD      ACCESS:    6486537  HIT:    6264940  MISS:     221597
L1D RFO       ACCESS:    7088584  HIT:    7021736  MISS:      66848
L1D PREFETCH  ACCESS:    6298604  HIT:    6092365  MISS:     206239
L1D WRITEBACK ACCESS:          0  HIT:          0  MISS:          0
L1D PREFETCH  REQUESTED:    6502346  ISSUED:    6369152  USEFUL:      50098  USELESS:     156145
L1D AVERAGE MISS LATENCY: 15.0791 cycles
L1I TOTAL     ACCESS:   16994019  HIT:   11912618  MISS:    5081401
L1I LOAD      ACCESS:    9376972  HIT:    9341801  MISS:      35171
L1I RFO       ACCESS:          0  HIT:          0  MISS:          0
L1I PREFETCH  ACCESS:    7617047  HIT:    2570817  MISS:    5046230
L1I WRITEBACK ACCESS:          0  HIT:          0  MISS:          0
L1I PREFETCH  REQUESTED:    7849362  ISSUED:    7849362  USEFUL:    4176597  USELESS:     869685
L1I AVERAGE MISS LATENCY: 14.7 cycles
L2C TOTAL     ACCESS:    7548988  HIT:    7548916  MISS:         72
L2C LOAD      ACCESS:     223433  HIT:     223430  MISS:          3
L2C RFO       ACCESS:      66752  HIT:      66752  MISS:          0
L2C PREFETCH  ACCESS:    7078759  HIT:    7078690  MISS:         69
L2C WRITEBACK ACCESS:     180044  HIT:     180044  MISS:          0
L2C PREFETCH  REQUESTED:    5947565  ISSUED:    5945708  USEFUL:          1  USELESS:          0
L2C AVERAGE MISS LATENCY: 53.8056 cycles
LLC TOTAL     ACCESS:     964122  HIT:     963654  MISS:        468
LLC LOAD      ACCESS:          3  HIT:          3  MISS:          0
LLC RFO       ACCESS:          0  HIT:          0  MISS:          0
LLC PREFETCH  ACCESS:     964119  HIT:     963651  MISS:        468
LLC WRITEBACK ACCESS:          0  HIT:          0  MISS:          0
LLC PREFETCH  REQUESTED:          0  ISSUED:          0  USEFUL:          3  USELESS:          0
LLC AVERAGE MISS LATENCY: 177.024 cycles
Major fault: 0 Minor fault: 356
I-Shadow cache 408 bytes
Touched + WorthPF tables 24576 bytes 
MMA filter 174 bytes 
FNL filter 272 bytes 
TOTAL PREFETCHER STORAGE SIZE: 98134 bytes
CPU 0 L1I next line prefetcher final stats
CPU 0 L1D next line prefetcher final stats

DRAM Statistics
 CHANNEL 0
 RQ ROW_BUFFER_HIT:        100  ROW_BUFFER_MISS:        368
 DBUS_CONGESTED:         99
 WQ ROW_BUFFER_HIT:          0  ROW_BUFFER_MISS:          0  FULL:          0

 AVG_CONGESTED_CYCLE: 5

CPU 0 Branch Prediction Accuracy: 99.9091% MPKI: 0.1547 Average ROB Occupancy at Mispredict: 301.493

Branch types
NOT_BRANCH: 41495018 82.99%
BRANCH_DIRECT_JUMP: 491309 0.982618%
BRANCH_INDIRECT: 0 0%
BRANCH_CONDITIONAL: 5595262 11.1905%
BRANCH_DIRECT_CALL: 1028408 2.05682%
BRANCH_INDIRECT_CALL: 180756 0.361512%
BRANCH_RETURN: 1209170 2.41834%
BRANCH_OTHER: 0 0%

