Initialize SIGNATURE TABLE
ST_SET: 1
ST_WAY: 256
ST_TAG_BIT: 16
ST_TAG_MASK: ffff

Initialize PATTERN TABLE
PT_SET: 512
PT_WAY: 4
SIG_DELTA_BIT: 7
C_SIG_BIT: 4
C_DELTA_BIT: 4

Initialize PREFETCH FILTER
FILTER_SET: 1024

*** ChampSim Multicore Out-of-Order Simulator ***

Warmup Instructions: 50000000
Simulation Instructions: 50000000
Number of CPUs: 1
LLC sets: 2048
LLC ways: 16
Off-chip DRAM Size: 4096 MB Channels: 1 Width: 64-bit Data Rate: 3200 MT/s

CPU 0 runs /Users/brandon/Documents/CoursesWi22/CSE240C/Homework1/ChampSim/ipc1_public/server_038.champsimtrace.xz
CPU 0 L1I next line prefetcher
CPU 0 L1D next line prefetcher
Heartbeat CPU 0 instructions: 10000001 cycles: 3321499 heartbeat IPC: 3.01069 cumulative IPC: 3.01069 (Simulation time: 0 hr 2 min 3 sec) 
Heartbeat CPU 0 instructions: 20000003 cycles: 6646115 heartbeat IPC: 3.00787 cumulative IPC: 3.00928 (Simulation time: 0 hr 4 min 17 sec) 
Heartbeat CPU 0 instructions: 30000003 cycles: 9966345 heartbeat IPC: 3.01184 cumulative IPC: 3.01013 (Simulation time: 0 hr 6 min 20 sec) 
Heartbeat CPU 0 instructions: 40000001 cycles: 13290088 heartbeat IPC: 3.00866 cumulative IPC: 3.00976 (Simulation time: 0 hr 8 min 21 sec) 
Heartbeat CPU 0 instructions: 50000001 cycles: 16611864 heartbeat IPC: 3.01044 cumulative IPC: 3.0099 (Simulation time: 0 hr 10 min 12 sec) 

Warmup complete CPU 0 instructions: 50000001 cycles: 16611864 (Simulation time: 0 hr 10 min 12 sec) 

Heartbeat CPU 0 instructions: 60000002 cycles: 23039546 heartbeat IPC: 1.55577 cumulative IPC: 1.55577 (Simulation time: 0 hr 12 min 12 sec) 
Heartbeat CPU 0 instructions: 70000001 cycles: 29426281 heartbeat IPC: 1.56575 cumulative IPC: 1.56074 (Simulation time: 0 hr 14 min 18 sec) 
Heartbeat CPU 0 instructions: 80000000 cycles: 35831923 heartbeat IPC: 1.56112 cumulative IPC: 1.56087 (Simulation time: 0 hr 16 min 10 sec) 
Heartbeat CPU 0 instructions: 90000001 cycles: 42239300 heartbeat IPC: 1.5607 cumulative IPC: 1.56083 (Simulation time: 0 hr 17 min 58 sec) 
*** Reached end of trace for Core: 0 Repeating trace: /Users/brandon/Documents/CoursesWi22/CSE240C/Homework1/ChampSim/ipc1_public/server_038.champsimtrace.xz
Heartbeat CPU 0 instructions: 100000002 cycles: 48663838 heartbeat IPC: 1.55653 cumulative IPC: 1.55997 (Simulation time: 0 hr 19 min 20 sec) 
Finished CPU 0 instructions: 50000001 cycles: 32051974 cumulative IPC: 1.55997 (Simulation time: 0 hr 19 min 20 sec) 

ChampSim completed all CPUs

Region of Interest Statistics

CPU 0 cumulative IPC: 1.55997 instructions: 50000001 cycles: 32051974
L1D TOTAL     ACCESS:   18693549  HIT:   17711223  MISS:     982326
L1D LOAD      ACCESS:    6360604  HIT:    5867329  MISS:     493275
L1D RFO       ACCESS:    6211144  HIT:    6146913  MISS:      64231
L1D PREFETCH  ACCESS:    6121801  HIT:    5696981  MISS:     424820
L1D WRITEBACK ACCESS:          0  HIT:          0  MISS:          0
L1D PREFETCH  REQUESTED:    6396885  ISSUED:    6244117  USEFUL:     118050  USELESS:     306773
L1D AVERAGE MISS LATENCY: 29.1875 cycles
L1I TOTAL     ACCESS:   16352547  HIT:   11357510  MISS:    4995037
L1I LOAD      ACCESS:    9451775  HIT:    9436676  MISS:      15099
L1I RFO       ACCESS:          0  HIT:          0  MISS:          0
L1I PREFETCH  ACCESS:    6900772  HIT:    1920834  MISS:    4979938
L1I WRITEBACK ACCESS:          0  HIT:          0  MISS:          0
L1I PREFETCH  REQUESTED:    7052967  ISSUED:    7052851  USEFUL:    4113631  USELESS:     866312
L1I AVERAGE MISS LATENCY: 14.9177 cycles
L2C TOTAL     ACCESS:    8455587  HIT:    8135343  MISS:     320244
L2C LOAD      ACCESS:     500227  HIT:     357332  MISS:     142895
L2C RFO       ACCESS:      64000  HIT:      36536  MISS:      27464
L2C PREFETCH  ACCESS:    7599643  HIT:    7451033  MISS:     148610
L2C WRITEBACK ACCESS:     291717  HIT:     290442  MISS:       1275
L2C PREFETCH  REQUESTED:    8563829  ISSUED:    8550430  USEFUL:       7325  USELESS:     141175
L2C AVERAGE MISS LATENCY: 44.6963 cycles
LLC TOTAL     ACCESS:    2041475  HIT:    1986580  MISS:      54895
LLC LOAD      ACCESS:     142867  HIT:     130368  MISS:      12499
LLC RFO       ACCESS:      27464  HIT:      22694  MISS:       4770
LLC PREFETCH  ACCESS:    1725367  HIT:    1688274  MISS:      37093
LLC WRITEBACK ACCESS:     145777  HIT:     145244  MISS:        533
LLC PREFETCH  REQUESTED:          0  ISSUED:          0  USEFUL:       3688  USELESS:      33149
LLC AVERAGE MISS LATENCY: 165.631 cycles
Major fault: 0 Minor fault: 5526
I-Shadow cache 408 bytes
Touched + WorthPF tables 24576 bytes 
MMA filter 174 bytes 
FNL filter 272 bytes 
TOTAL PREFETCHER STORAGE SIZE: 98134 bytes
CPU 0 L1I next line prefetcher final stats
CPU 0 L1D next line prefetcher final stats

DRAM Statistics
 CHANNEL 0
 RQ ROW_BUFFER_HIT:       7766  ROW_BUFFER_MISS:      46594
 DBUS_CONGESTED:      25539
 WQ ROW_BUFFER_HIT:       1165  ROW_BUFFER_MISS:      11076  FULL:          0

 AVG_CONGESTED_CYCLE: 5

CPU 0 Branch Prediction Accuracy: 99.9279% MPKI: 0.12968 Average ROB Occupancy at Mispredict: 261.645

Branch types
NOT_BRANCH: 41006323 82.0126%
BRANCH_DIRECT_JUMP: 541914 1.08383%
BRANCH_INDIRECT: 59690 0.11938%
BRANCH_CONDITIONAL: 5915846 11.8317%
BRANCH_DIRECT_CALL: 1003588 2.00718%
BRANCH_INDIRECT_CALL: 234499 0.468998%
BRANCH_RETURN: 1238071 2.47614%
BRANCH_OTHER: 0 0%

