Initialize SIGNATURE TABLE
ST_SET: 1
ST_WAY: 256
ST_TAG_BIT: 16
ST_TAG_MASK: ffff

Initialize PATTERN TABLE
PT_SET: 512
PT_WAY: 4
SIG_DELTA_BIT: 7
C_SIG_BIT: 4
C_DELTA_BIT: 4

Initialize PREFETCH FILTER
FILTER_SET: 1024

*** ChampSim Multicore Out-of-Order Simulator ***

Warmup Instructions: 50000000
Simulation Instructions: 50000000
Number of CPUs: 1
LLC sets: 2048
LLC ways: 16
Off-chip DRAM Size: 4096 MB Channels: 1 Width: 64-bit Data Rate: 3200 MT/s

CPU 0 runs /Users/brandon/Documents/CoursesWi22/CSE240C/Homework1/ChampSim/ipc1_public/server_024.champsimtrace.xz
CPU 0 L1I next line prefetcher
CPU 0 L1D next line prefetcher
Heartbeat CPU 0 instructions: 10000000 cycles: 3499636 heartbeat IPC: 2.85744 cumulative IPC: 2.85744 (Simulation time: 0 hr 2 min 0 sec) 
Heartbeat CPU 0 instructions: 20000002 cycles: 6991524 heartbeat IPC: 2.86378 cumulative IPC: 2.86061 (Simulation time: 0 hr 4 min 10 sec) 
Heartbeat CPU 0 instructions: 30000000 cycles: 10493365 heartbeat IPC: 2.85564 cumulative IPC: 2.85895 (Simulation time: 0 hr 6 min 11 sec) 
Heartbeat CPU 0 instructions: 40000000 cycles: 13993047 heartbeat IPC: 2.8574 cumulative IPC: 2.85856 (Simulation time: 0 hr 8 min 10 sec) 
Heartbeat CPU 0 instructions: 50000001 cycles: 17482880 heartbeat IPC: 2.86547 cumulative IPC: 2.85994 (Simulation time: 0 hr 9 min 57 sec) 

Warmup complete CPU 0 instructions: 50000001 cycles: 17482880 (Simulation time: 0 hr 9 min 57 sec) 

Heartbeat CPU 0 instructions: 60000003 cycles: 24284801 heartbeat IPC: 1.47017 cumulative IPC: 1.47017 (Simulation time: 0 hr 11 min 48 sec) 
Heartbeat CPU 0 instructions: 70000000 cycles: 31122580 heartbeat IPC: 1.46246 cumulative IPC: 1.46631 (Simulation time: 0 hr 13 min 47 sec) 
*** Reached end of trace for Core: 0 Repeating trace: /Users/brandon/Documents/CoursesWi22/CSE240C/Homework1/ChampSim/ipc1_public/server_024.champsimtrace.xz
Heartbeat CPU 0 instructions: 80000003 cycles: 37919611 heartbeat IPC: 1.47123 cumulative IPC: 1.46795 (Simulation time: 0 hr 15 min 33 sec) 
Heartbeat CPU 0 instructions: 90000003 cycles: 44781324 heartbeat IPC: 1.45736 cumulative IPC: 1.46529 (Simulation time: 0 hr 17 min 18 sec) 
Heartbeat CPU 0 instructions: 100000002 cycles: 51609248 heartbeat IPC: 1.46457 cumulative IPC: 1.46514 (Simulation time: 0 hr 18 min 53 sec) 
Finished CPU 0 instructions: 50000001 cycles: 34126368 cumulative IPC: 1.46514 (Simulation time: 0 hr 18 min 53 sec) 

ChampSim completed all CPUs

Region of Interest Statistics

CPU 0 cumulative IPC: 1.46514 instructions: 50000001 cycles: 34126368
L1D TOTAL     ACCESS:   19673477  HIT:   18156029  MISS:    1517448
L1D LOAD      ACCESS:    6927689  HIT:    6246553  MISS:     681136
L1D RFO       ACCESS:    6148761  HIT:    5874904  MISS:     273857
L1D PREFETCH  ACCESS:    6597027  HIT:    6034572  MISS:     562455
L1D WRITEBACK ACCESS:          0  HIT:          0  MISS:          0
L1D PREFETCH  REQUESTED:    6982167  ISSUED:    6860980  USEFUL:     135124  USELESS:     427336
L1D AVERAGE MISS LATENCY: 26.0776 cycles
L1I TOTAL     ACCESS:   14867438  HIT:   11160200  MISS:    3707238
L1I LOAD      ACCESS:    9340408  HIT:    9278051  MISS:      62357
L1I RFO       ACCESS:          0  HIT:          0  MISS:          0
L1I PREFETCH  ACCESS:    5527030  HIT:    1882149  MISS:    3644881
L1I WRITEBACK ACCESS:          0  HIT:          0  MISS:          0
L1I PREFETCH  REQUESTED:    5677469  ISSUED:    5652330  USEFUL:    2554948  USELESS:    1089922
L1I AVERAGE MISS LATENCY: 19.2127 cycles
L2C TOTAL     ACCESS:    7047484  HIT:    6206870  MISS:     840614
L2C LOAD      ACCESS:     668631  HIT:     524177  MISS:     144454
L2C RFO       ACCESS:     272153  HIT:     179230  MISS:      92923
L2C PREFETCH  ACCESS:    5586470  HIT:    4990416  MISS:     596054
L2C WRITEBACK ACCESS:     520230  HIT:     513047  MISS:       7183
L2C PREFETCH  REQUESTED:    6848827  ISSUED:    6836571  USEFUL:      16928  USELESS:     578683
L2C AVERAGE MISS LATENCY: 42.5555 cycles
LLC TOTAL     ACCESS:    2526070  HIT:    2474153  MISS:      51917
LLC LOAD      ACCESS:     144035  HIT:     138569  MISS:       5466
LLC RFO       ACCESS:      92912  HIT:      70927  MISS:      21985
LLC PREFETCH  ACCESS:    2132991  HIT:    2108767  MISS:      24224
LLC WRITEBACK ACCESS:     156132  HIT:     155890  MISS:        242
LLC PREFETCH  REQUESTED:          0  ISSUED:          0  USEFUL:       2269  USELESS:      21953
LLC AVERAGE MISS LATENCY: 198.333 cycles
Major fault: 0 Minor fault: 2363
I-Shadow cache 408 bytes
Touched + WorthPF tables 24576 bytes 
MMA filter 174 bytes 
FNL filter 272 bytes 
TOTAL PREFETCHER STORAGE SIZE: 98134 bytes
CPU 0 L1I next line prefetcher final stats
CPU 0 L1D next line prefetcher final stats

DRAM Statistics
 CHANNEL 0
 RQ ROW_BUFFER_HIT:      17566  ROW_BUFFER_MISS:      34088
 DBUS_CONGESTED:      38591
 WQ ROW_BUFFER_HIT:       2595  ROW_BUFFER_MISS:      22811  FULL:          0

 AVG_CONGESTED_CYCLE: 6

CPU 0 Branch Prediction Accuracy: 99.7477% MPKI: 0.46156 Average ROB Occupancy at Mispredict: 175.243

Branch types
NOT_BRANCH: 40853665 81.7073%
BRANCH_DIRECT_JUMP: 566818 1.13364%
BRANCH_INDIRECT: 197171 0.394342%
BRANCH_CONDITIONAL: 6308416 12.6168%
BRANCH_DIRECT_CALL: 876400 1.7528%
BRANCH_INDIRECT_CALL: 160491 0.320982%
BRANCH_RETURN: 1036885 2.07377%
BRANCH_OTHER: 0 0%

