Initialize SIGNATURE TABLE
ST_SET: 1
ST_WAY: 256
ST_TAG_BIT: 16
ST_TAG_MASK: ffff

Initialize PATTERN TABLE
PT_SET: 512
PT_WAY: 4
SIG_DELTA_BIT: 7
C_SIG_BIT: 4
C_DELTA_BIT: 4

Initialize PREFETCH FILTER
FILTER_SET: 1024

*** ChampSim Multicore Out-of-Order Simulator ***

Warmup Instructions: 50000000
Simulation Instructions: 50000000
Number of CPUs: 1
LLC sets: 2048
LLC ways: 16
Off-chip DRAM Size: 4096 MB Channels: 1 Width: 64-bit Data Rate: 3200 MT/s

CPU 0 runs /Users/brandon/Documents/CoursesWi22/CSE240C/Homework1/ChampSim/ipc1_public/server_028.champsimtrace.xz
CPU 0 L1I next line prefetcher
CPU 0 L1D next line prefetcher
Heartbeat CPU 0 instructions: 10000001 cycles: 3495440 heartbeat IPC: 2.86087 cumulative IPC: 2.86087 (Simulation time: 0 hr 2 min 2 sec) 
Heartbeat CPU 0 instructions: 20000002 cycles: 6994285 heartbeat IPC: 2.85809 cumulative IPC: 2.85948 (Simulation time: 0 hr 4 min 16 sec) 
Heartbeat CPU 0 instructions: 30000001 cycles: 10490898 heartbeat IPC: 2.85991 cumulative IPC: 2.85962 (Simulation time: 0 hr 6 min 19 sec) 
Heartbeat CPU 0 instructions: 40000002 cycles: 13993822 heartbeat IPC: 2.85476 cumulative IPC: 2.8584 (Simulation time: 0 hr 8 min 20 sec) 
Heartbeat CPU 0 instructions: 50000001 cycles: 17493725 heartbeat IPC: 2.85722 cumulative IPC: 2.85817 (Simulation time: 0 hr 10 min 11 sec) 

Warmup complete CPU 0 instructions: 50000001 cycles: 17493725 (Simulation time: 0 hr 10 min 11 sec) 

Heartbeat CPU 0 instructions: 60000000 cycles: 25010644 heartbeat IPC: 1.33033 cumulative IPC: 1.33033 (Simulation time: 0 hr 12 min 10 sec) 
Heartbeat CPU 0 instructions: 70000000 cycles: 32537815 heartbeat IPC: 1.32852 cumulative IPC: 1.32943 (Simulation time: 0 hr 14 min 16 sec) 
Heartbeat CPU 0 instructions: 80000000 cycles: 40061063 heartbeat IPC: 1.32921 cumulative IPC: 1.32935 (Simulation time: 0 hr 16 min 7 sec) 
*** Reached end of trace for Core: 0 Repeating trace: /Users/brandon/Documents/CoursesWi22/CSE240C/Homework1/ChampSim/ipc1_public/server_028.champsimtrace.xz
Heartbeat CPU 0 instructions: 90000001 cycles: 47549141 heartbeat IPC: 1.33546 cumulative IPC: 1.33087 (Simulation time: 0 hr 17 min 55 sec) 
Heartbeat CPU 0 instructions: 100000003 cycles: 55009184 heartbeat IPC: 1.34048 cumulative IPC: 1.33278 (Simulation time: 0 hr 19 min 18 sec) 
Finished CPU 0 instructions: 50000002 cycles: 37515459 cumulative IPC: 1.33278 (Simulation time: 0 hr 19 min 18 sec) 

ChampSim completed all CPUs

Region of Interest Statistics

CPU 0 cumulative IPC: 1.33278 instructions: 50000002 cycles: 37515459
L1D TOTAL     ACCESS:   19014760  HIT:   16941437  MISS:    2073323
L1D LOAD      ACCESS:    6715209  HIT:    5666667  MISS:    1048542
L1D RFO       ACCESS:    6092323  HIT:    5808472  MISS:     283851
L1D PREFETCH  ACCESS:    6207228  HIT:    5466298  MISS:     740930
L1D WRITEBACK ACCESS:          0  HIT:          0  MISS:          0
L1D PREFETCH  REQUESTED:    6776746  ISSUED:    6667348  USEFUL:     174302  USELESS:     566631
L1D AVERAGE MISS LATENCY: 22.6101 cycles
L1I TOTAL     ACCESS:   16366610  HIT:   12126403  MISS:    4240207
L1I LOAD      ACCESS:    9810405  HIT:    9764997  MISS:      45408
L1I RFO       ACCESS:          0  HIT:          0  MISS:          0
L1I PREFETCH  ACCESS:    6556205  HIT:    2361406  MISS:    4194799
L1I WRITEBACK ACCESS:          0  HIT:          0  MISS:          0
L1I PREFETCH  REQUESTED:    6770175  ISSUED:    6726278  USEFUL:    2970384  USELESS:    1224417
L1I AVERAGE MISS LATENCY: 19.5224 cycles
L2C TOTAL     ACCESS:    8669544  HIT:    7675135  MISS:     994409
L2C LOAD      ACCESS:     939438  HIT:     757411  MISS:     182027
L2C RFO       ACCESS:     281427  HIT:     211832  MISS:      69595
L2C PREFETCH  ACCESS:    6843812  HIT:    6105130  MISS:     738682
L2C WRITEBACK ACCESS:     604867  HIT:     600762  MISS:       4105
L2C PREFETCH  REQUESTED:    8774206  ISSUED:    8751443  USEFUL:      13919  USELESS:     724486
L2C AVERAGE MISS LATENCY: 39.2962 cycles
LLC TOTAL     ACCESS:    2993572  HIT:    2927857  MISS:      65715
LLC LOAD      ACCESS:     181968  HIT:     166155  MISS:      15813
LLC RFO       ACCESS:      69391  HIT:      67452  MISS:       1939
LLC PREFETCH  ACCESS:    2609536  HIT:    2561874  MISS:      47662
LLC WRITEBACK ACCESS:     132677  HIT:     132376  MISS:        301
LLC PREFETCH  REQUESTED:          0  ISSUED:          0  USEFUL:       2206  USELESS:      45552
LLC AVERAGE MISS LATENCY: 155.632 cycles
Major fault: 0 Minor fault: 6038
I-Shadow cache 408 bytes
Touched + WorthPF tables 24576 bytes 
MMA filter 174 bytes 
FNL filter 272 bytes 
TOTAL PREFETCHER STORAGE SIZE: 98134 bytes
CPU 0 L1I next line prefetcher final stats
CPU 0 L1D next line prefetcher final stats

DRAM Statistics
 CHANNEL 0
 RQ ROW_BUFFER_HIT:      18670  ROW_BUFFER_MISS:      46744
 DBUS_CONGESTED:      27919
 WQ ROW_BUFFER_HIT:        342  ROW_BUFFER_MISS:       3052  FULL:          0

 AVG_CONGESTED_CYCLE: 5

CPU 0 Branch Prediction Accuracy: 99.7093% MPKI: 0.54708 Average ROB Occupancy at Mispredict: 152.916

Branch types
NOT_BRANCH: 40590932 81.1819%
BRANCH_DIRECT_JUMP: 523494 1.04699%
BRANCH_INDIRECT: 166997 0.333994%
BRANCH_CONDITIONAL: 6365183 12.7304%
BRANCH_DIRECT_CALL: 989493 1.97899%
BRANCH_INDIRECT_CALL: 187203 0.374406%
BRANCH_RETURN: 1176698 2.3534%
BRANCH_OTHER: 0 0%

