Initialize SIGNATURE TABLE
ST_SET: 1
ST_WAY: 256
ST_TAG_BIT: 16
ST_TAG_MASK: ffff

Initialize PATTERN TABLE
PT_SET: 512
PT_WAY: 4
SIG_DELTA_BIT: 7
C_SIG_BIT: 4
C_DELTA_BIT: 4

Initialize PREFETCH FILTER
FILTER_SET: 1024

*** ChampSim Multicore Out-of-Order Simulator ***

Warmup Instructions: 50000000
Simulation Instructions: 50000000
Number of CPUs: 1
LLC sets: 2048
LLC ways: 16
Off-chip DRAM Size: 4096 MB Channels: 1 Width: 64-bit Data Rate: 3200 MT/s

CPU 0 runs /Users/brandon/Documents/CoursesWi22/CSE240C/Homework1/ChampSim/ipc1_public/spec_perlbench_001.champsimtrace.xz
CPU 0 L1I next line prefetcher
CPU 0 L1D next line prefetcher
Heartbeat CPU 0 instructions: 10000000 cycles: 3275748 heartbeat IPC: 3.05274 cumulative IPC: 3.05274 (Simulation time: 0 hr 1 min 47 sec) 
Heartbeat CPU 0 instructions: 20000000 cycles: 6540381 heartbeat IPC: 3.06313 cumulative IPC: 3.05793 (Simulation time: 0 hr 3 min 49 sec) 
Heartbeat CPU 0 instructions: 30000002 cycles: 9856967 heartbeat IPC: 3.01515 cumulative IPC: 3.04353 (Simulation time: 0 hr 5 min 43 sec) 
Heartbeat CPU 0 instructions: 40000002 cycles: 13112406 heartbeat IPC: 3.07178 cumulative IPC: 3.05055 (Simulation time: 0 hr 7 min 28 sec) 
Heartbeat CPU 0 instructions: 50000001 cycles: 16386203 heartbeat IPC: 3.05456 cumulative IPC: 3.05135 (Simulation time: 0 hr 9 min 5 sec) 

Warmup complete CPU 0 instructions: 50000001 cycles: 16386203 (Simulation time: 0 hr 9 min 5 sec) 

Heartbeat CPU 0 instructions: 60000001 cycles: 24730808 heartbeat IPC: 1.19838 cumulative IPC: 1.19838 (Simulation time: 0 hr 10 min 30 sec) 
Heartbeat CPU 0 instructions: 70000000 cycles: 32916629 heartbeat IPC: 1.22162 cumulative IPC: 1.20989 (Simulation time: 0 hr 12 min 5 sec) 
Heartbeat CPU 0 instructions: 80000000 cycles: 41342339 heartbeat IPC: 1.18684 cumulative IPC: 1.20211 (Simulation time: 0 hr 13 min 42 sec) 
Heartbeat CPU 0 instructions: 90000000 cycles: 47067928 heartbeat IPC: 1.74655 cumulative IPC: 1.30371 (Simulation time: 0 hr 14 min 50 sec) 
Heartbeat CPU 0 instructions: 100000002 cycles: 52942989 heartbeat IPC: 1.70211 cumulative IPC: 1.36774 (Simulation time: 0 hr 15 min 54 sec) 
Finished CPU 0 instructions: 50000001 cycles: 36556786 cumulative IPC: 1.36774 (Simulation time: 0 hr 15 min 54 sec) 

ChampSim completed all CPUs

Region of Interest Statistics

CPU 0 cumulative IPC: 1.36774 instructions: 50000001 cycles: 36556786
L1D TOTAL     ACCESS:   20720032  HIT:   20304937  MISS:     415095
L1D LOAD      ACCESS:    7189070  HIT:    6975424  MISS:     213646
L1D RFO       ACCESS:    6542906  HIT:    6524391  MISS:      18515
L1D PREFETCH  ACCESS:    6988056  HIT:    6805122  MISS:     182934
L1D WRITEBACK ACCESS:          0  HIT:          0  MISS:          0
L1D PREFETCH  REQUESTED:    7204930  ISSUED:    7088516  USEFUL:      55248  USELESS:     127681
L1D AVERAGE MISS LATENCY: 57.7059 cycles
L1I TOTAL     ACCESS:   10680214  HIT:   10044511  MISS:     635703
L1I LOAD      ACCESS:    9150763  HIT:    9035676  MISS:     115087
L1I RFO       ACCESS:          0  HIT:          0  MISS:          0
L1I PREFETCH  ACCESS:    1529451  HIT:    1008835  MISS:     520616
L1I WRITEBACK ACCESS:          0  HIT:          0  MISS:          0
L1I PREFETCH  REQUESTED:    1597149  ISSUED:    1597149  USEFUL:     320151  USELESS:     200458
L1I AVERAGE MISS LATENCY: 17.2599 cycles
L2C TOTAL     ACCESS:    1452370  HIT:    1283675  MISS:     168695
L2C LOAD      ACCESS:     307855  HIT:     225446  MISS:      82409
L2C RFO       ACCESS:      18272  HIT:      12866  MISS:       5406
L2C PREFETCH  ACCESS:    1047291  HIT:     966769  MISS:      80522
L2C WRITEBACK ACCESS:      78952  HIT:      78594  MISS:        358
L2C PREFETCH  REQUESTED:    1084101  ISSUED:    1084088  USEFUL:       6350  USELESS:      74283
L2C AVERAGE MISS LATENCY: 118.006 cycles
LLC TOTAL     ACCESS:     432066  HIT:     287866  MISS:     144200
LLC LOAD      ACCESS:      82408  HIT:      33706  MISS:      48702
LLC RFO       ACCESS:       5406  HIT:       2406  MISS:       3000
LLC PREFETCH  ACCESS:     318898  HIT:     226930  MISS:      91968
LLC WRITEBACK ACCESS:      25354  HIT:      24824  MISS:        530
LLC PREFETCH  REQUESTED:          0  ISSUED:          0  USEFUL:      15242  USELESS:      77039
LLC AVERAGE MISS LATENCY: 159.435 cycles
Major fault: 0 Minor fault: 6365
I-Shadow cache 408 bytes
Touched + WorthPF tables 24576 bytes 
MMA filter 174 bytes 
FNL filter 272 bytes 
TOTAL PREFETCHER STORAGE SIZE: 98134 bytes
CPU 0 L1I next line prefetcher final stats
CPU 0 L1D next line prefetcher final stats

DRAM Statistics
 CHANNEL 0
 RQ ROW_BUFFER_HIT:      32350  ROW_BUFFER_MISS:     111320
 DBUS_CONGESTED:      60635
 WQ ROW_BUFFER_HIT:       4239  ROW_BUFFER_MISS:      13199  FULL:          0

 AVG_CONGESTED_CYCLE: 4

CPU 0 Branch Prediction Accuracy: 98.7418% MPKI: 2.47758 Average ROB Occupancy at Mispredict: 76.8299

Branch types
NOT_BRANCH: 40154100 80.3082%
BRANCH_DIRECT_JUMP: 817094 1.63419%
BRANCH_INDIRECT: 303787 0.607574%
BRANCH_CONDITIONAL: 7492103 14.9842%
BRANCH_DIRECT_CALL: 471777 0.943554%
BRANCH_INDIRECT_CALL: 144546 0.289092%
BRANCH_RETURN: 616324 1.23265%
BRANCH_OTHER: 0 0%

