Initialize SIGNATURE TABLE
ST_SET: 1
ST_WAY: 256
ST_TAG_BIT: 16
ST_TAG_MASK: ffff

Initialize PATTERN TABLE
PT_SET: 512
PT_WAY: 4
SIG_DELTA_BIT: 7
C_SIG_BIT: 4
C_DELTA_BIT: 4

Initialize PREFETCH FILTER
FILTER_SET: 1024

*** ChampSim Multicore Out-of-Order Simulator ***

Warmup Instructions: 50000000
Simulation Instructions: 50000000
Number of CPUs: 1
LLC sets: 2048
LLC ways: 16
Off-chip DRAM Size: 4096 MB Channels: 1 Width: 64-bit Data Rate: 3200 MT/s

CPU 0 runs /Users/brandon/Documents/CoursesWi22/CSE240C/Homework1/ChampSim/ipc1_public/spec_x264_001.champsimtrace.xz
CPU 0 L1I next line prefetcher
CPU 0 L1D next line prefetcher
Heartbeat CPU 0 instructions: 10000002 cycles: 3059696 heartbeat IPC: 3.2683 cumulative IPC: 3.2683 (Simulation time: 0 hr 1 min 16 sec) 
Heartbeat CPU 0 instructions: 20000002 cycles: 6109504 heartbeat IPC: 3.27889 cumulative IPC: 3.27359 (Simulation time: 0 hr 2 min 47 sec) 
Heartbeat CPU 0 instructions: 30000002 cycles: 9144799 heartbeat IPC: 3.29457 cumulative IPC: 3.28055 (Simulation time: 0 hr 4 min 8 sec) 
Heartbeat CPU 0 instructions: 40000000 cycles: 12188944 heartbeat IPC: 3.28499 cumulative IPC: 3.28166 (Simulation time: 0 hr 5 min 29 sec) 
Heartbeat CPU 0 instructions: 50000000 cycles: 15231616 heartbeat IPC: 3.28658 cumulative IPC: 3.28265 (Simulation time: 0 hr 6 min 46 sec) 

Warmup complete CPU 0 instructions: 50000004 cycles: 15231617 (Simulation time: 0 hr 6 min 46 sec) 

Heartbeat CPU 0 instructions: 60000000 cycles: 21165890 heartbeat IPC: 1.68513 cumulative IPC: 1.68513 (Simulation time: 0 hr 7 min 29 sec) 
Heartbeat CPU 0 instructions: 70000000 cycles: 27081434 heartbeat IPC: 1.69046 cumulative IPC: 1.68779 (Simulation time: 0 hr 8 min 11 sec) 
Heartbeat CPU 0 instructions: 80000003 cycles: 33134713 heartbeat IPC: 1.652 cumulative IPC: 1.67569 (Simulation time: 0 hr 8 min 51 sec) 
Heartbeat CPU 0 instructions: 90000001 cycles: 39169155 heartbeat IPC: 1.65715 cumulative IPC: 1.67102 (Simulation time: 0 hr 9 min 30 sec) 
Heartbeat CPU 0 instructions: 100000002 cycles: 45070442 heartbeat IPC: 1.69455 cumulative IPC: 1.67567 (Simulation time: 0 hr 10 min 9 sec) 
Finished CPU 0 instructions: 50000002 cycles: 29838826 cumulative IPC: 1.67567 (Simulation time: 0 hr 10 min 9 sec) 

ChampSim completed all CPUs

Region of Interest Statistics

CPU 0 cumulative IPC: 1.67567 instructions: 50000002 cycles: 29838826
L1D TOTAL     ACCESS:   12960321  HIT:   12799242  MISS:     161079
L1D LOAD      ACCESS:    5092631  HIT:    5037524  MISS:      55107
L1D RFO       ACCESS:    2882888  HIT:    2848558  MISS:      34330
L1D PREFETCH  ACCESS:    4984802  HIT:    4913160  MISS:      71642
L1D WRITEBACK ACCESS:          0  HIT:          0  MISS:          0
L1D PREFETCH  REQUESTED:    5109474  ISSUED:    5042549  USEFUL:      25762  USELESS:      45689
L1D AVERAGE MISS LATENCY: 39.3186 cycles
L1I TOTAL     ACCESS:    8601456  HIT:    8201056  MISS:     400400
L1I LOAD      ACCESS:    8034116  HIT:    8026916  MISS:       7200
L1I RFO       ACCESS:          0  HIT:          0  MISS:          0
L1I PREFETCH  ACCESS:     567340  HIT:     174140  MISS:     393200
L1I WRITEBACK ACCESS:          0  HIT:          0  MISS:          0
L1I PREFETCH  REQUESTED:     573063  ISSUED:     573063  USEFUL:     299752  USELESS:      93455
L1I AVERAGE MISS LATENCY: 14.796 cycles
L2C TOTAL     ACCESS:     788856  HIT:     749530  MISS:      39326
L2C LOAD      ACCESS:      60160  HIT:      54512  MISS:       5648
L2C RFO       ACCESS:      34154  HIT:      22087  MISS:      12067
L2C PREFETCH  ACCESS:     651424  HIT:     629892  MISS:      21532
L2C WRITEBACK ACCESS:      43118  HIT:      43039  MISS:         79
L2C PREFETCH  REQUESTED:     621293  ISSUED:     618969  USEFUL:       8993  USELESS:      12722
L2C AVERAGE MISS LATENCY: 100.544 cycles
LLC TOTAL     ACCESS:     137251  HIT:     108225  MISS:      29026
LLC LOAD      ACCESS:       5648  HIT:       3516  MISS:       2132
LLC RFO       ACCESS:      12067  HIT:        456  MISS:      11611
LLC PREFETCH  ACCESS:     105922  HIT:      90737  MISS:      15185
LLC WRITEBACK ACCESS:      13614  HIT:      13516  MISS:         98
LLC PREFETCH  REQUESTED:          0  ISSUED:          0  USEFUL:       1738  USELESS:      14028
LLC AVERAGE MISS LATENCY: 162.217 cycles
Major fault: 0 Minor fault: 1284
I-Shadow cache 408 bytes
Touched + WorthPF tables 24576 bytes 
MMA filter 174 bytes 
FNL filter 272 bytes 
TOTAL PREFETCHER STORAGE SIZE: 98134 bytes
CPU 0 L1I next line prefetcher final stats
CPU 0 L1D next line prefetcher final stats

DRAM Statistics
 CHANNEL 0
 RQ ROW_BUFFER_HIT:       9925  ROW_BUFFER_MISS:      19003
 DBUS_CONGESTED:      12399
 WQ ROW_BUFFER_HIT:       2908  ROW_BUFFER_MISS:       9780  FULL:          0

 AVG_CONGESTED_CYCLE: 6

CPU 0 Branch Prediction Accuracy: 97.1633% MPKI: 1.73704 Average ROB Occupancy at Mispredict: 42.5477

Branch types
NOT_BRANCH: 46937921 93.8758%
BRANCH_DIRECT_JUMP: 170816 0.341632%
BRANCH_INDIRECT: 0 0%
BRANCH_CONDITIONAL: 2532774 5.06555%
BRANCH_DIRECT_CALL: 114227 0.228454%
BRANCH_INDIRECT_CALL: 64863 0.129726%
BRANCH_RETURN: 179089 0.358178%
BRANCH_OTHER: 0 0%

