Initialize SIGNATURE TABLE
ST_SET: 1
ST_WAY: 256
ST_TAG_BIT: 16
ST_TAG_MASK: ffff

Initialize PATTERN TABLE
PT_SET: 512
PT_WAY: 4
SIG_DELTA_BIT: 7
C_SIG_BIT: 4
C_DELTA_BIT: 4

Initialize PREFETCH FILTER
FILTER_SET: 1024

*** ChampSim Multicore Out-of-Order Simulator ***

Warmup Instructions: 50000000
Simulation Instructions: 50000000
Number of CPUs: 1
LLC sets: 2048
LLC ways: 16
Off-chip DRAM Size: 4096 MB Channels: 1 Width: 64-bit Data Rate: 3200 MT/s

CPU 0 runs /Users/brandon/Documents/CoursesWi22/CSE240C/Homework1/ChampSim/ipc1_public/spec_gcc_003.champsimtrace.xz
CPU 0 L1I next line prefetcher
CPU 0 L1D next line prefetcher
Heartbeat CPU 0 instructions: 10000001 cycles: 3485137 heartbeat IPC: 2.86933 cumulative IPC: 2.86933 (Simulation time: 0 hr 1 min 25 sec) 
Heartbeat CPU 0 instructions: 20000000 cycles: 6958538 heartbeat IPC: 2.87902 cumulative IPC: 2.87417 (Simulation time: 0 hr 3 min 0 sec) 
Heartbeat CPU 0 instructions: 30000002 cycles: 10402808 heartbeat IPC: 2.90337 cumulative IPC: 2.88384 (Simulation time: 0 hr 4 min 23 sec) 
Heartbeat CPU 0 instructions: 40000000 cycles: 13868920 heartbeat IPC: 2.88508 cumulative IPC: 2.88415 (Simulation time: 0 hr 5 min 47 sec) 
Heartbeat CPU 0 instructions: 50000001 cycles: 17176470 heartbeat IPC: 3.02339 cumulative IPC: 2.91096 (Simulation time: 0 hr 7 min 8 sec) 

Warmup complete CPU 0 instructions: 50000001 cycles: 17176470 (Simulation time: 0 hr 7 min 8 sec) 

Heartbeat CPU 0 instructions: 60000000 cycles: 56543167 heartbeat IPC: 0.254022 cumulative IPC: 0.254022 (Simulation time: 0 hr 10 min 35 sec) 
Heartbeat CPU 0 instructions: 70000000 cycles: 98037586 heartbeat IPC: 0.240996 cumulative IPC: 0.247338 (Simulation time: 0 hr 14 min 18 sec) 
Heartbeat CPU 0 instructions: 80000002 cycles: 140664732 heartbeat IPC: 0.234592 cumulative IPC: 0.242938 (Simulation time: 0 hr 17 min 41 sec) 
Heartbeat CPU 0 instructions: 90000002 cycles: 176791142 heartbeat IPC: 0.276806 cumulative IPC: 0.250604 (Simulation time: 0 hr 19 min 31 sec) 
Heartbeat CPU 0 instructions: 100000001 cycles: 222294096 heartbeat IPC: 0.219766 cumulative IPC: 0.243763 (Simulation time: 0 hr 20 min 7 sec) 
Finished CPU 0 instructions: 50000000 cycles: 205117626 cumulative IPC: 0.243763 (Simulation time: 0 hr 20 min 7 sec) 

ChampSim completed all CPUs

Region of Interest Statistics

CPU 0 cumulative IPC: 0.243763 instructions: 50000000 cycles: 205117626
L1D TOTAL     ACCESS:   16876076  HIT:   11151706  MISS:    5724370
L1D LOAD      ACCESS:    4576287  HIT:    4193247  MISS:     383040
L1D RFO       ACCESS:    8211354  HIT:    3159775  MISS:    5051579
L1D PREFETCH  ACCESS:    4088435  HIT:    3798684  MISS:     289751
L1D WRITEBACK ACCESS:          0  HIT:          0  MISS:          0
L1D PREFETCH  REQUESTED:    4593970  ISSUED:    4534763  USEFUL:     152282  USELESS:     137649
L1D AVERAGE MISS LATENCY: 489.068 cycles
L1I TOTAL     ACCESS:   13653465  HIT:   12314420  MISS:    1339045
L1I LOAD      ACCESS:   11278924  HIT:   11150331  MISS:     128593
L1I RFO       ACCESS:          0  HIT:          0  MISS:          0
L1I PREFETCH  ACCESS:    2374541  HIT:    1164089  MISS:    1210452
L1I WRITEBACK ACCESS:          0  HIT:          0  MISS:          0
L1I PREFETCH  REQUESTED:    2540803  ISSUED:    2479039  USEFUL:     730340  USELESS:     480098
L1I AVERAGE MISS LATENCY: 60.1061 cycles
L2C TOTAL     ACCESS:   12533659  HIT:    6457655  MISS:    6076004
L2C LOAD      ACCESS:     314325  HIT:     118910  MISS:     195415
L2C RFO       ACCESS:    5049791  HIT:       6463  MISS:    5043328
L2C PREFETCH  ACCESS:    2011698  HIT:    1174583  MISS:     837115
L2C WRITEBACK ACCESS:    5157845  HIT:    5157699  MISS:        146
L2C PREFETCH  REQUESTED:    2448371  ISSUED:    2448176  USEFUL:      47044  USELESS:     787301
L2C AVERAGE MISS LATENCY: 458.967 cycles
LLC TOTAL     ACCESS:   12044371  HIT:    7444395  MISS:    4599976
LLC LOAD      ACCESS:     195374  HIT:     144899  MISS:      50475
LLC RFO       ACCESS:    5043327  HIT:     757427  MISS:    4285900
LLC PREFETCH  ACCESS:    1672094  HIT:    1408493  MISS:     263601
LLC WRITEBACK ACCESS:    5133576  HIT:    5133576  MISS:          0
LLC PREFETCH  REQUESTED:          0  ISSUED:          0  USEFUL:      16129  USELESS:     247638
LLC AVERAGE MISS LATENCY: 574.686 cycles
Major fault: 0 Minor fault: 2817
I-Shadow cache 408 bytes
Touched + WorthPF tables 24576 bytes 
MMA filter 174 bytes 
FNL filter 272 bytes 
TOTAL PREFETCHER STORAGE SIZE: 98134 bytes
CPU 0 L1I next line prefetcher final stats
CPU 0 L1D next line prefetcher final stats

DRAM Statistics
 CHANNEL 0
 RQ ROW_BUFFER_HIT:    1383373  ROW_BUFFER_MISS:    3215013
 DBUS_CONGESTED:    7925452
 WQ ROW_BUFFER_HIT:    1144627  ROW_BUFFER_MISS:    3170118  FULL:       1335

 AVG_CONGESTED_CYCLE: 6

CPU 0 Branch Prediction Accuracy: 99.665% MPKI: 0.78342 Average ROB Occupancy at Mispredict: 118.161

Branch types
NOT_BRANCH: 38305861 76.6117%
BRANCH_DIRECT_JUMP: 384281 0.768562%
BRANCH_INDIRECT: 71949 0.143898%
BRANCH_CONDITIONAL: 9879826 19.7597%
BRANCH_DIRECT_CALL: 650586 1.30117%
BRANCH_INDIRECT_CALL: 28456 0.056912%
BRANCH_RETURN: 679046 1.35809%
BRANCH_OTHER: 0 0%

