Initialize SIGNATURE TABLE
ST_SET: 1
ST_WAY: 256
ST_TAG_BIT: 16
ST_TAG_MASK: ffff

Initialize PATTERN TABLE
PT_SET: 512
PT_WAY: 4
SIG_DELTA_BIT: 7
C_SIG_BIT: 4
C_DELTA_BIT: 4

Initialize PREFETCH FILTER
FILTER_SET: 1024

*** ChampSim Multicore Out-of-Order Simulator ***

Warmup Instructions: 50000000
Simulation Instructions: 50000000
Number of CPUs: 1
LLC sets: 2048
LLC ways: 16
Off-chip DRAM Size: 4096 MB Channels: 1 Width: 64-bit Data Rate: 3200 MT/s

CPU 0 runs /Users/brandon/Documents/CoursesWi22/CSE240C/Homework1/ChampSim/ipc1_public/client_007.champsimtrace.xz
L1I D-JOLT instruction prefetcher has been constructed!
CPU 0 L1D next line prefetcher
Heartbeat CPU 0 instructions: 10000001 cycles: 3642242 heartbeat IPC: 2.74556 cumulative IPC: 2.74556 (Simulation time: 0 hr 1 min 39 sec) 
Heartbeat CPU 0 instructions: 20000003 cycles: 7034344 heartbeat IPC: 2.94803 cumulative IPC: 2.84319 (Simulation time: 0 hr 4 min 35 sec) 
Heartbeat CPU 0 instructions: 30000000 cycles: 10906583 heartbeat IPC: 2.58248 cumulative IPC: 2.75063 (Simulation time: 0 hr 7 min 3 sec) 
Heartbeat CPU 0 instructions: 40000003 cycles: 15066684 heartbeat IPC: 2.40379 cumulative IPC: 2.65486 (Simulation time: 0 hr 9 min 20 sec) 
Heartbeat CPU 0 instructions: 50000002 cycles: 18472187 heartbeat IPC: 2.93642 cumulative IPC: 2.70677 (Simulation time: 0 hr 12 min 12 sec) 

Warmup complete CPU 0 instructions: 50000002 cycles: 18472187 (Simulation time: 0 hr 12 min 12 sec) 

Heartbeat CPU 0 instructions: 60000003 cycles: 25365685 heartbeat IPC: 1.45064 cumulative IPC: 1.45064 (Simulation time: 0 hr 14 min 26 sec) 
Heartbeat CPU 0 instructions: 70000003 cycles: 34237251 heartbeat IPC: 1.1272 cumulative IPC: 1.26863 (Simulation time: 0 hr 16 min 59 sec) 
Heartbeat CPU 0 instructions: 80000002 cycles: 39567995 heartbeat IPC: 1.87591 cumulative IPC: 1.42208 (Simulation time: 0 hr 18 min 56 sec) 
Heartbeat CPU 0 instructions: 90000002 cycles: 47179079 heartbeat IPC: 1.31387 cumulative IPC: 1.39339 (Simulation time: 0 hr 21 min 11 sec) 
Heartbeat CPU 0 instructions: 100000002 cycles: 56120498 heartbeat IPC: 1.11839 cumulative IPC: 1.32808 (Simulation time: 0 hr 22 min 49 sec) 
Finished CPU 0 instructions: 50000000 cycles: 37648311 cumulative IPC: 1.32808 (Simulation time: 0 hr 22 min 49 sec) 

ChampSim completed all CPUs

Region of Interest Statistics

CPU 0 cumulative IPC: 1.32808 instructions: 50000000 cycles: 37648311
L1D TOTAL     ACCESS:   21198962  HIT:   20029857  MISS:    1169105
L1D LOAD      ACCESS:    8370130  HIT:    7831129  MISS:     539001
L1D RFO       ACCESS:    4868779  HIT:    4777718  MISS:      91061
L1D PREFETCH  ACCESS:    7960053  HIT:    7421010  MISS:     539043
L1D WRITEBACK ACCESS:          0  HIT:          0  MISS:          0
L1D PREFETCH  REQUESTED:    8421988  ISSUED:    8178209  USEFUL:     158507  USELESS:     380551
L1D AVERAGE MISS LATENCY: 34.549 cycles
L1I TOTAL     ACCESS:   13119141  HIT:   11944444  MISS:    1174697
L1I LOAD      ACCESS:    9118298  HIT:    9059726  MISS:      58572
L1I RFO       ACCESS:          0  HIT:          0  MISS:          0
L1I PREFETCH  ACCESS:    4000843  HIT:    2884718  MISS:    1116125
L1I WRITEBACK ACCESS:          0  HIT:          0  MISS:          0
L1I PREFETCH  REQUESTED:    4142422  ISSUED:    4090165  USEFUL:     842273  USELESS:     273912
L1I AVERAGE MISS LATENCY: 16.4585 cycles
L2C TOTAL     ACCESS:    3505387  HIT:    3298651  MISS:     206736
L2C LOAD      ACCESS:     568294  HIT:     498109  MISS:      70185
L2C RFO       ACCESS:      89501  HIT:      47808  MISS:      41693
L2C PREFETCH  ACCESS:    2519927  HIT:    2425262  MISS:      94665
L2C WRITEBACK ACCESS:     327665  HIT:     327472  MISS:        193
L2C PREFETCH  REQUESTED:    2525220  ISSUED:    2518804  USEFUL:       9897  USELESS:      84741
L2C AVERAGE MISS LATENCY: 125.22 cycles
LLC TOTAL     ACCESS:     928916  HIT:     760817  MISS:     168099
LLC LOAD      ACCESS:      70112  HIT:      34682  MISS:      35430
LLC RFO       ACCESS:      41692  HIT:       7260  MISS:      34432
LLC PREFETCH  ACCESS:     742393  HIT:     644481  MISS:      97912
LLC WRITEBACK ACCESS:      74719  HIT:      74394  MISS:        325
LLC PREFETCH  REQUESTED:          0  ISSUED:          0  USEFUL:      18602  USELESS:      80446
LLC AVERAGE MISS LATENCY: 182.494 cycles
Major fault: 0 Minor fault: 4413
CPU 0 L1D next line prefetcher final stats

DRAM Statistics
 CHANNEL 0
 RQ ROW_BUFFER_HIT:      34970  ROW_BUFFER_MISS:     132797
 DBUS_CONGESTED:      93355
 WQ ROW_BUFFER_HIT:      12904  ROW_BUFFER_MISS:      44885  FULL:          0

 AVG_CONGESTED_CYCLE: 5

CPU 0 Branch Prediction Accuracy: 98.8607% MPKI: 1.8623 Average ROB Occupancy at Mispredict: 113.248

Branch types
NOT_BRANCH: 41826773 83.6535%
BRANCH_DIRECT_JUMP: 735330 1.47066%
BRANCH_INDIRECT: 269194 0.538388%
BRANCH_CONDITIONAL: 5957947 11.9159%
BRANCH_DIRECT_CALL: 368758 0.737516%
BRANCH_INDIRECT_CALL: 226975 0.45395%
BRANCH_RETURN: 614696 1.22939%
BRANCH_OTHER: 0 0%

