Initialize SIGNATURE TABLE
ST_SET: 1
ST_WAY: 256
ST_TAG_BIT: 16
ST_TAG_MASK: ffff

Initialize PATTERN TABLE
PT_SET: 512
PT_WAY: 4
SIG_DELTA_BIT: 7
C_SIG_BIT: 4
C_DELTA_BIT: 4

Initialize PREFETCH FILTER
FILTER_SET: 1024

*** ChampSim Multicore Out-of-Order Simulator ***

Warmup Instructions: 50000000
Simulation Instructions: 50000000
Number of CPUs: 1
LLC sets: 2048
LLC ways: 16
Off-chip DRAM Size: 4096 MB Channels: 1 Width: 64-bit Data Rate: 3200 MT/s

CPU 0 runs /Users/brandon/Documents/CoursesWi22/CSE240C/Homework1/ChampSim/ipc1_public/client_008.champsimtrace.xz
L1I D-JOLT instruction prefetcher has been constructed!
CPU 0 L1D next line prefetcher
Heartbeat CPU 0 instructions: 10000001 cycles: 3754565 heartbeat IPC: 2.66342 cumulative IPC: 2.66342 (Simulation time: 0 hr 1 min 55 sec) 
Heartbeat CPU 0 instructions: 20000001 cycles: 7531168 heartbeat IPC: 2.64788 cumulative IPC: 2.65563 (Simulation time: 0 hr 5 min 28 sec) 
Heartbeat CPU 0 instructions: 30000000 cycles: 11258890 heartbeat IPC: 2.6826 cumulative IPC: 2.66456 (Simulation time: 0 hr 7 min 53 sec) 
Heartbeat CPU 0 instructions: 40000002 cycles: 15054901 heartbeat IPC: 2.63434 cumulative IPC: 2.65694 (Simulation time: 0 hr 11 min 10 sec) 
Heartbeat CPU 0 instructions: 50000003 cycles: 18848226 heartbeat IPC: 2.63621 cumulative IPC: 2.65277 (Simulation time: 0 hr 13 min 39 sec) 

Warmup complete CPU 0 instructions: 50000003 cycles: 18848226 (Simulation time: 0 hr 13 min 39 sec) 

Heartbeat CPU 0 instructions: 60000000 cycles: 27035406 heartbeat IPC: 1.22142 cumulative IPC: 1.22142 (Simulation time: 0 hr 16 min 26 sec) 
Heartbeat CPU 0 instructions: 70000000 cycles: 34997790 heartbeat IPC: 1.25591 cumulative IPC: 1.23842 (Simulation time: 0 hr 19 min 34 sec) 
Heartbeat CPU 0 instructions: 80000000 cycles: 44100170 heartbeat IPC: 1.09861 cumulative IPC: 1.18803 (Simulation time: 0 hr 21 min 41 sec) 
Heartbeat CPU 0 instructions: 90000001 cycles: 51503422 heartbeat IPC: 1.35076 cumulative IPC: 1.22492 (Simulation time: 0 hr 23 min 6 sec) 
Heartbeat CPU 0 instructions: 100000001 cycles: 59543234 heartbeat IPC: 1.24381 cumulative IPC: 1.22865 (Simulation time: 0 hr 24 min 25 sec) 
Finished CPU 0 instructions: 50000002 cycles: 40695009 cumulative IPC: 1.22865 (Simulation time: 0 hr 24 min 25 sec) 

ChampSim completed all CPUs

Region of Interest Statistics

CPU 0 cumulative IPC: 1.22865 instructions: 50000002 cycles: 40695009
L1D TOTAL     ACCESS:   20476060  HIT:   18847669  MISS:    1628391
L1D LOAD      ACCESS:    8060083  HIT:    7260309  MISS:     799774
L1D RFO       ACCESS:    4814375  HIT:    4704814  MISS:     109561
L1D PREFETCH  ACCESS:    7601602  HIT:    6882546  MISS:     719056
L1D WRITEBACK ACCESS:          0  HIT:          0  MISS:          0
L1D PREFETCH  REQUESTED:    8129815  ISSUED:    7961043  USEFUL:     199329  USELESS:     519732
L1D AVERAGE MISS LATENCY: 33.0422 cycles
L1I TOTAL     ACCESS:   15675026  HIT:   14106709  MISS:    1568317
L1I LOAD      ACCESS:    9773250  HIT:    9727782  MISS:      45468
L1I RFO       ACCESS:          0  HIT:          0  MISS:          0
L1I PREFETCH  ACCESS:    5901776  HIT:    4378927  MISS:    1522849
L1I WRITEBACK ACCESS:          0  HIT:          0  MISS:          0
L1I PREFETCH  REQUESTED:    6487976  ISSUED:    6408282  USEFUL:     845989  USELESS:     676986
L1I AVERAGE MISS LATENCY: 17.0511 cycles
L2C TOTAL     ACCESS:    4473760  HIT:    4002846  MISS:     470914
L2C LOAD      ACCESS:     791422  HIT:     619506  MISS:     171916
L2C RFO       ACCESS:     104342  HIT:      18111  MISS:      86231
L2C PREFETCH  ACCESS:    3395999  HIT:    3183788  MISS:     212211
L2C WRITEBACK ACCESS:     181997  HIT:     181441  MISS:        556
L2C PREFETCH  REQUESTED:    3249945  ISSUED:    3222516  USEFUL:      20235  USELESS:     193953
L2C AVERAGE MISS LATENCY: 74.4897 cycles
LLC TOTAL     ACCESS:    1541450  HIT:    1358623  MISS:     182827
LLC LOAD      ACCESS:     171818  HIT:     148891  MISS:      22927
LLC RFO       ACCESS:      86230  HIT:      15808  MISS:      70422
LLC PREFETCH  ACCESS:    1147018  HIT:    1057873  MISS:      89145
LLC WRITEBACK ACCESS:     136384  HIT:     136051  MISS:        333
LLC PREFETCH  REQUESTED:          0  ISSUED:          0  USEFUL:      24757  USELESS:      72235
LLC AVERAGE MISS LATENCY: 166.669 cycles
Major fault: 0 Minor fault: 5306
CPU 0 L1D next line prefetcher final stats

DRAM Statistics
 CHANNEL 0
 RQ ROW_BUFFER_HIT:      50889  ROW_BUFFER_MISS:     131593
 DBUS_CONGESTED:      95804
 WQ ROW_BUFFER_HIT:      23998  ROW_BUFFER_MISS:      65656  FULL:          0

 AVG_CONGESTED_CYCLE: 6

CPU 0 Branch Prediction Accuracy: 98.6482% MPKI: 3.1551 Average ROB Occupancy at Mispredict: 97.0485

Branch types
NOT_BRANCH: 38329598 76.6592%
BRANCH_DIRECT_JUMP: 510116 1.02023%
BRANCH_INDIRECT: 225730 0.45146%
BRANCH_CONDITIONAL: 8366762 16.7335%
BRANCH_DIRECT_CALL: 600748 1.2015%
BRANCH_INDIRECT_CALL: 682990 1.36598%
BRANCH_RETURN: 1283974 2.56795%
BRANCH_OTHER: 0 0%

