Initialize SIGNATURE TABLE
ST_SET: 1
ST_WAY: 256
ST_TAG_BIT: 16
ST_TAG_MASK: ffff

Initialize PATTERN TABLE
PT_SET: 512
PT_WAY: 4
SIG_DELTA_BIT: 7
C_SIG_BIT: 4
C_DELTA_BIT: 4

Initialize PREFETCH FILTER
FILTER_SET: 1024

*** ChampSim Multicore Out-of-Order Simulator ***

Warmup Instructions: 50000000
Simulation Instructions: 50000000
Number of CPUs: 1
LLC sets: 2048
LLC ways: 16
Off-chip DRAM Size: 4096 MB Channels: 1 Width: 64-bit Data Rate: 3200 MT/s

CPU 0 runs /Users/brandon/Documents/CoursesWi22/CSE240C/Homework1/ChampSim/ipc1_public/server_023.champsimtrace.xz
L1I D-JOLT instruction prefetcher has been constructed!
CPU 0 L1D next line prefetcher
Heartbeat CPU 0 instructions: 10000000 cycles: 3497987 heartbeat IPC: 2.85879 cumulative IPC: 2.85879 (Simulation time: 0 hr 2 min 7 sec) 
Heartbeat CPU 0 instructions: 20000000 cycles: 6995554 heartbeat IPC: 2.85913 cumulative IPC: 2.85896 (Simulation time: 0 hr 4 min 20 sec) 
Heartbeat CPU 0 instructions: 30000001 cycles: 10486945 heartbeat IPC: 2.86419 cumulative IPC: 2.8607 (Simulation time: 0 hr 6 min 55 sec) 
Heartbeat CPU 0 instructions: 40000003 cycles: 13984435 heartbeat IPC: 2.85919 cumulative IPC: 2.86032 (Simulation time: 0 hr 9 min 38 sec) 
Heartbeat CPU 0 instructions: 50000001 cycles: 17483202 heartbeat IPC: 2.85815 cumulative IPC: 2.85989 (Simulation time: 0 hr 12 min 32 sec) 

Warmup complete CPU 0 instructions: 50000001 cycles: 17483202 (Simulation time: 0 hr 12 min 32 sec) 

Heartbeat CPU 0 instructions: 60000002 cycles: 24215055 heartbeat IPC: 1.48548 cumulative IPC: 1.48548 (Simulation time: 0 hr 15 min 8 sec) 
Heartbeat CPU 0 instructions: 70000002 cycles: 31156461 heartbeat IPC: 1.44063 cumulative IPC: 1.46271 (Simulation time: 0 hr 16 min 55 sec) 
Heartbeat CPU 0 instructions: 80000000 cycles: 38015540 heartbeat IPC: 1.45792 cumulative IPC: 1.46111 (Simulation time: 0 hr 18 min 26 sec) 
Heartbeat CPU 0 instructions: 90000000 cycles: 44909477 heartbeat IPC: 1.45055 cumulative IPC: 1.45846 (Simulation time: 0 hr 19 min 43 sec) 
Heartbeat CPU 0 instructions: 100000001 cycles: 51730020 heartbeat IPC: 1.46616 cumulative IPC: 1.45999 (Simulation time: 0 hr 21 min 2 sec) 
Finished CPU 0 instructions: 50000000 cycles: 34246818 cumulative IPC: 1.45999 (Simulation time: 0 hr 21 min 2 sec) 

ChampSim completed all CPUs

Region of Interest Statistics

CPU 0 cumulative IPC: 1.45999 instructions: 50000000 cycles: 34246818
L1D TOTAL     ACCESS:   19333330  HIT:   17866551  MISS:    1466779
L1D LOAD      ACCESS:    6836689  HIT:    6175040  MISS:     661649
L1D RFO       ACCESS:    5983965  HIT:    5722677  MISS:     261288
L1D PREFETCH  ACCESS:    6512676  HIT:    5968834  MISS:     543842
L1D WRITEBACK ACCESS:          0  HIT:          0  MISS:          0
L1D PREFETCH  REQUESTED:    6887193  ISSUED:    6765054  USEFUL:     129304  USELESS:     414547
L1D AVERAGE MISS LATENCY: 24.9802 cycles
L1I TOTAL     ACCESS:   15375521  HIT:   12493246  MISS:    2882275
L1I LOAD      ACCESS:    9452527  HIT:    9406911  MISS:      45616
L1I RFO       ACCESS:          0  HIT:          0  MISS:          0
L1I PREFETCH  ACCESS:    5922994  HIT:    3086335  MISS:    2836659
L1I WRITEBACK ACCESS:          0  HIT:          0  MISS:          0
L1I PREFETCH  REQUESTED:    6241906  ISSUED:    6169103  USEFUL:    2401887  USELESS:     434782
L1I AVERAGE MISS LATENCY: 19.6765 cycles
L2C TOTAL     ACCESS:    6081038  HIT:    5293674  MISS:     787364
L2C LOAD      ACCESS:     642043  HIT:     506772  MISS:     135271
L2C RFO       ACCESS:     259425  HIT:     175447  MISS:      83978
L2C PREFETCH  ACCESS:    4680296  HIT:    4116628  MISS:     563668
L2C WRITEBACK ACCESS:     499274  HIT:     494827  MISS:       4447
L2C PREFETCH  REQUESTED:    4134704  ISSUED:    4129656  USEFUL:      13823  USELESS:     549992
L2C AVERAGE MISS LATENCY: 40.4202 cycles
LLC TOTAL     ACCESS:    2020348  HIT:    1970628  MISS:      49720
LLC LOAD      ACCESS:     135043  HIT:     128836  MISS:       6207
LLC RFO       ACCESS:      83951  HIT:      65947  MISS:      18004
LLC PREFETCH  ACCESS:    1661445  HIT:    1636210  MISS:      25235
LLC WRITEBACK ACCESS:     139909  HIT:     139635  MISS:        274
LLC PREFETCH  REQUESTED:          0  ISSUED:          0  USEFUL:       2295  USELESS:      22893
LLC AVERAGE MISS LATENCY: 183.321 cycles
Major fault: 0 Minor fault: 2775
CPU 0 L1D next line prefetcher final stats

DRAM Statistics
 CHANNEL 0
 RQ ROW_BUFFER_HIT:      14928  ROW_BUFFER_MISS:      34513
 DBUS_CONGESTED:      31451
 WQ ROW_BUFFER_HIT:       2444  ROW_BUFFER_MISS:      19292  FULL:          0

 AVG_CONGESTED_CYCLE: 6

CPU 0 Branch Prediction Accuracy: 99.6798% MPKI: 0.58608 Average ROB Occupancy at Mispredict: 147.411

Branch types
NOT_BRANCH: 40848335 81.6967%
BRANCH_DIRECT_JUMP: 548373 1.09675%
BRANCH_INDIRECT: 189802 0.379604%
BRANCH_CONDITIONAL: 6372772 12.7455%
BRANCH_DIRECT_CALL: 862207 1.72441%
BRANCH_INDIRECT_CALL: 158149 0.316298%
BRANCH_RETURN: 1020345 2.04069%
BRANCH_OTHER: 0 0%

