Initialize SIGNATURE TABLE
ST_SET: 1
ST_WAY: 256
ST_TAG_BIT: 16
ST_TAG_MASK: ffff

Initialize PATTERN TABLE
PT_SET: 512
PT_WAY: 4
SIG_DELTA_BIT: 7
C_SIG_BIT: 4
C_DELTA_BIT: 4

Initialize PREFETCH FILTER
FILTER_SET: 1024

*** ChampSim Multicore Out-of-Order Simulator ***

Warmup Instructions: 50000000
Simulation Instructions: 50000000
Number of CPUs: 1
LLC sets: 2048
LLC ways: 16
Off-chip DRAM Size: 4096 MB Channels: 1 Width: 64-bit Data Rate: 3200 MT/s

CPU 0 runs /Users/brandon/Documents/CoursesWi22/CSE240C/Homework1/ChampSim/ipc1_public/server_033.champsimtrace.xz
L1I D-JOLT instruction prefetcher has been constructed!
CPU 0 L1D next line prefetcher
Heartbeat CPU 0 instructions: 10000001 cycles: 3342484 heartbeat IPC: 2.99179 cumulative IPC: 2.99179 (Simulation time: 0 hr 2 min 9 sec) 
Heartbeat CPU 0 instructions: 20000002 cycles: 6683313 heartbeat IPC: 2.99327 cumulative IPC: 2.99253 (Simulation time: 0 hr 4 min 24 sec) 
Heartbeat CPU 0 instructions: 30000001 cycles: 10014960 heartbeat IPC: 3.00152 cumulative IPC: 2.99552 (Simulation time: 0 hr 7 min 2 sec) 
Heartbeat CPU 0 instructions: 40000000 cycles: 13355813 heartbeat IPC: 2.99325 cumulative IPC: 2.99495 (Simulation time: 0 hr 9 min 49 sec) 
Heartbeat CPU 0 instructions: 50000000 cycles: 16696105 heartbeat IPC: 2.99375 cumulative IPC: 2.99471 (Simulation time: 0 hr 12 min 56 sec) 

Warmup complete CPU 0 instructions: 50000004 cycles: 16696106 (Simulation time: 0 hr 12 min 56 sec) 

Heartbeat CPU 0 instructions: 60000000 cycles: 23303656 heartbeat IPC: 1.51342 cumulative IPC: 1.51342 (Simulation time: 0 hr 15 min 24 sec) 
Heartbeat CPU 0 instructions: 70000000 cycles: 29880661 heartbeat IPC: 1.52045 cumulative IPC: 1.51693 (Simulation time: 0 hr 17 min 14 sec) 
Heartbeat CPU 0 instructions: 80000000 cycles: 37257607 heartbeat IPC: 1.35557 cumulative IPC: 1.45904 (Simulation time: 0 hr 18 min 50 sec) 
Heartbeat CPU 0 instructions: 90000003 cycles: 43876271 heartbeat IPC: 1.51088 cumulative IPC: 1.47166 (Simulation time: 0 hr 20 min 17 sec) 
Heartbeat CPU 0 instructions: 100000003 cycles: 50446499 heartbeat IPC: 1.52202 cumulative IPC: 1.48146 (Simulation time: 0 hr 21 min 30 sec) 
Finished CPU 0 instructions: 50000003 cycles: 33750394 cumulative IPC: 1.48146 (Simulation time: 0 hr 21 min 30 sec) 

ChampSim completed all CPUs

Region of Interest Statistics

CPU 0 cumulative IPC: 1.48146 instructions: 50000003 cycles: 33750394
L1D TOTAL     ACCESS:   18221779  HIT:   16739591  MISS:    1482188
L1D LOAD      ACCESS:    6137904  HIT:    5454519  MISS:     683385
L1D RFO       ACCESS:    6159873  HIT:    6010579  MISS:     149294
L1D PREFETCH  ACCESS:    5924002  HIT:    5274493  MISS:     649509
L1D WRITEBACK ACCESS:          0  HIT:          0  MISS:          0
L1D PREFETCH  REQUESTED:    6180915  ISSUED:    6060804  USEFUL:     141375  USELESS:     508140
L1D AVERAGE MISS LATENCY: 24.5866 cycles
L1I TOTAL     ACCESS:   19395711  HIT:   15354545  MISS:    4041166
L1I LOAD      ACCESS:    9704157  HIT:    9660578  MISS:      43579
L1I RFO       ACCESS:          0  HIT:          0  MISS:          0
L1I PREFETCH  ACCESS:    9691554  HIT:    5693967  MISS:    3997587
L1I WRITEBACK ACCESS:          0  HIT:          0  MISS:          0
L1I PREFETCH  REQUESTED:   10342973  ISSUED:   10167925  USEFUL:    3327085  USELESS:     670477
L1I AVERAGE MISS LATENCY: 16.0636 cycles
L2C TOTAL     ACCESS:    7615387  HIT:    7180504  MISS:     434883
L2C LOAD      ACCESS:     715530  HIT:     582166  MISS:     133364
L2C RFO       ACCESS:     147910  HIT:     120861  MISS:      27049
L2C PREFETCH  ACCESS:    6385443  HIT:    6118195  MISS:     267248
L2C WRITEBACK ACCESS:     366504  HIT:     359282  MISS:       7222
L2C PREFETCH  REQUESTED:    6163453  ISSUED:    6140176  USEFUL:       8762  USELESS:     258180
L2C AVERAGE MISS LATENCY: 45.1244 cycles
LLC TOTAL     ACCESS:    2313074  HIT:    2248969  MISS:      64105
LLC LOAD      ACCESS:     133317  HIT:     118897  MISS:      14420
LLC RFO       ACCESS:      27000  HIT:      23808  MISS:       3192
LLC PREFETCH  ACCESS:    2036577  HIT:    1990368  MISS:      46209
LLC WRITEBACK ACCESS:     116180  HIT:     115896  MISS:        284
LLC PREFETCH  REQUESTED:          0  ISSUED:          0  USEFUL:       6630  USELESS:      38082
LLC AVERAGE MISS LATENCY: 175.618 cycles
Major fault: 0 Minor fault: 2486
CPU 0 L1D next line prefetcher final stats

DRAM Statistics
 CHANNEL 0
 RQ ROW_BUFFER_HIT:       9706  ROW_BUFFER_MISS:      54110
 DBUS_CONGESTED:      25191
 WQ ROW_BUFFER_HIT:       3957  ROW_BUFFER_MISS:      17575  FULL:          0

 AVG_CONGESTED_CYCLE: 5

CPU 0 Branch Prediction Accuracy: 99.9029% MPKI: 0.19006 Average ROB Occupancy at Mispredict: 256.311

Branch types
NOT_BRANCH: 40217181 80.4344%
BRANCH_DIRECT_JUMP: 774600 1.5492%
BRANCH_INDIRECT: 108806 0.217612%
BRANCH_CONDITIONAL: 6379339 12.7587%
BRANCH_DIRECT_CALL: 1048812 2.09762%
BRANCH_INDIRECT_CALL: 211109 0.422218%
BRANCH_RETURN: 1259927 2.51985%
BRANCH_OTHER: 0 0%

