Initialize SIGNATURE TABLE
ST_SET: 1
ST_WAY: 256
ST_TAG_BIT: 16
ST_TAG_MASK: ffff

Initialize PATTERN TABLE
PT_SET: 512
PT_WAY: 4
SIG_DELTA_BIT: 7
C_SIG_BIT: 4
C_DELTA_BIT: 4

Initialize PREFETCH FILTER
FILTER_SET: 1024

*** ChampSim Multicore Out-of-Order Simulator ***

Warmup Instructions: 50000000
Simulation Instructions: 50000000
Number of CPUs: 1
LLC sets: 2048
LLC ways: 16
Off-chip DRAM Size: 4096 MB Channels: 1 Width: 64-bit Data Rate: 3200 MT/s

CPU 0 runs /Users/brandon/Documents/CoursesWi22/CSE240C/Homework1/ChampSim/ipc1_public/server_021.champsimtrace.xz
L1I D-JOLT instruction prefetcher has been constructed!
CPU 0 L1D next line prefetcher
Heartbeat CPU 0 instructions: 10000000 cycles: 3623793 heartbeat IPC: 2.75954 cumulative IPC: 2.75954 (Simulation time: 0 hr 1 min 53 sec) 
Heartbeat CPU 0 instructions: 20000000 cycles: 7241861 heartbeat IPC: 2.76391 cumulative IPC: 2.76172 (Simulation time: 0 hr 5 min 23 sec) 
Heartbeat CPU 0 instructions: 30000003 cycles: 10890906 heartbeat IPC: 2.74044 cumulative IPC: 2.75459 (Simulation time: 0 hr 7 min 43 sec) 
Heartbeat CPU 0 instructions: 40000001 cycles: 14504774 heartbeat IPC: 2.76712 cumulative IPC: 2.75771 (Simulation time: 0 hr 10 min 49 sec) 
Heartbeat CPU 0 instructions: 50000002 cycles: 18140867 heartbeat IPC: 2.75021 cumulative IPC: 2.75621 (Simulation time: 0 hr 13 min 23 sec) 

Warmup complete CPU 0 instructions: 50000002 cycles: 18140867 (Simulation time: 0 hr 13 min 23 sec) 

Heartbeat CPU 0 instructions: 60000001 cycles: 34897180 heartbeat IPC: 0.59679 cumulative IPC: 0.59679 (Simulation time: 0 hr 16 min 56 sec) 
Heartbeat CPU 0 instructions: 70000002 cycles: 51782637 heartbeat IPC: 0.592226 cumulative IPC: 0.594499 (Simulation time: 0 hr 20 min 44 sec) 
Heartbeat CPU 0 instructions: 80000001 cycles: 68474825 heartbeat IPC: 0.599083 cumulative IPC: 0.596019 (Simulation time: 0 hr 23 min 21 sec) 
Heartbeat CPU 0 instructions: 90000001 cycles: 85419059 heartbeat IPC: 0.590171 cumulative IPC: 0.594546 (Simulation time: 0 hr 24 min 58 sec) 
Heartbeat CPU 0 instructions: 100000002 cycles: 102145834 heartbeat IPC: 0.597844 cumulative IPC: 0.595203 (Simulation time: 0 hr 25 min 52 sec) 
Finished CPU 0 instructions: 50000000 cycles: 84004967 cumulative IPC: 0.595203 (Simulation time: 0 hr 25 min 52 sec) 

ChampSim completed all CPUs

Region of Interest Statistics

CPU 0 cumulative IPC: 0.595203 instructions: 50000000 cycles: 84004967
L1D TOTAL     ACCESS:   18703417  HIT:   16500049  MISS:    2203368
L1D LOAD      ACCESS:    7059521  HIT:    6358101  MISS:     701420
L1D RFO       ACCESS:    5877614  HIT:    4902111  MISS:     975503
L1D PREFETCH  ACCESS:    5766282  HIT:    5239837  MISS:     526445
L1D WRITEBACK ACCESS:          0  HIT:          0  MISS:          0
L1D PREFETCH  REQUESTED:    7102434  ISSUED:    6896685  USEFUL:     205240  USELESS:     321199
L1D AVERAGE MISS LATENCY: 182.784 cycles
L1I TOTAL     ACCESS:   18697414  HIT:   15207779  MISS:    3489635
L1I LOAD      ACCESS:   10137240  HIT:   10091420  MISS:      45820
L1I RFO       ACCESS:          0  HIT:          0  MISS:          0
L1I PREFETCH  ACCESS:    8560174  HIT:    5116359  MISS:    3443815
L1I WRITEBACK ACCESS:          0  HIT:          0  MISS:          0
L1I PREFETCH  REQUESTED:    9280246  ISSUED:    9143619  USEFUL:    2752588  USELESS:     691196
L1I AVERAGE MISS LATENCY: 17.6036 cycles
L2C TOTAL     ACCESS:    8396556  HIT:    6531744  MISS:    1864812
L2C LOAD      ACCESS:     510772  HIT:     261825  MISS:     248947
L2C RFO       ACCESS:     974944  HIT:      21444  MISS:     953500
L2C PREFETCH  ACCESS:    5730970  HIT:    5071368  MISS:     659602
L2C WRITEBACK ACCESS:    1179870  HIT:    1177107  MISS:       2763
L2C PREFETCH  REQUESTED:    5221745  ISSUED:    5213062  USEFUL:      19787  USELESS:     639751
L2C AVERAGE MISS LATENCY: 221.515 cycles
LLC TOTAL     ACCESS:    4247380  HIT:    2827388  MISS:    1419992
LLC LOAD      ACCESS:     248867  HIT:     169573  MISS:      79294
LLC RFO       ACCESS:     953499  HIT:     141792  MISS:     811707
LLC PREFETCH  ACCESS:    1931809  HIT:    1405296  MISS:     526513
LLC WRITEBACK ACCESS:    1113205  HIT:    1110727  MISS:       2478
LLC PREFETCH  REQUESTED:          0  ISSUED:          0  USEFUL:      31700  USELESS:     493469
LLC AVERAGE MISS LATENCY: 297.52 cycles
Major fault: 0 Minor fault: 22292
CPU 0 L1D next line prefetcher final stats

DRAM Statistics
 CHANNEL 0
 RQ ROW_BUFFER_HIT:     409118  ROW_BUFFER_MISS:    1008017
 DBUS_CONGESTED:    1460081
 WQ ROW_BUFFER_HIT:     251435  ROW_BUFFER_MISS:     652932  FULL:          0

 AVG_CONGESTED_CYCLE: 6

CPU 0 Branch Prediction Accuracy: 99.8303% MPKI: 0.27836 Average ROB Occupancy at Mispredict: 227.137

Branch types
NOT_BRANCH: 41798549 83.5971%
BRANCH_DIRECT_JUMP: 445215 0.89043%
BRANCH_INDIRECT: 50481 0.100962%
BRANCH_CONDITIONAL: 5868246 11.7365%
BRANCH_DIRECT_CALL: 758228 1.51646%
BRANCH_INDIRECT_CALL: 160494 0.320988%
BRANCH_RETURN: 918718 1.83744%
BRANCH_OTHER: 0 0%

