Initialize SIGNATURE TABLE
ST_SET: 1
ST_WAY: 256
ST_TAG_BIT: 16
ST_TAG_MASK: ffff

Initialize PATTERN TABLE
PT_SET: 512
PT_WAY: 4
SIG_DELTA_BIT: 7
C_SIG_BIT: 4
C_DELTA_BIT: 4

Initialize PREFETCH FILTER
FILTER_SET: 1024

*** ChampSim Multicore Out-of-Order Simulator ***

Warmup Instructions: 50000000
Simulation Instructions: 50000000
Number of CPUs: 1
LLC sets: 2048
LLC ways: 16
Off-chip DRAM Size: 4096 MB Channels: 1 Width: 64-bit Data Rate: 3200 MT/s

CPU 0 runs /Users/brandon/Documents/CoursesWi22/CSE240C/Homework1/ChampSim/ipc1_public/server_017.champsimtrace.xz
L1I D-JOLT instruction prefetcher has been constructed!
CPU 0 L1D next line prefetcher
Heartbeat CPU 0 instructions: 10000001 cycles: 3622526 heartbeat IPC: 2.7605 cumulative IPC: 2.7605 (Simulation time: 0 hr 1 min 52 sec) 
Heartbeat CPU 0 instructions: 20000000 cycles: 7243330 heartbeat IPC: 2.76182 cumulative IPC: 2.76116 (Simulation time: 0 hr 5 min 20 sec) 
Heartbeat CPU 0 instructions: 30000002 cycles: 10870634 heartbeat IPC: 2.75687 cumulative IPC: 2.75973 (Simulation time: 0 hr 7 min 40 sec) 
Heartbeat CPU 0 instructions: 40000000 cycles: 14493444 heartbeat IPC: 2.76029 cumulative IPC: 2.75987 (Simulation time: 0 hr 10 min 43 sec) 
Heartbeat CPU 0 instructions: 50000001 cycles: 18127387 heartbeat IPC: 2.75183 cumulative IPC: 2.75826 (Simulation time: 0 hr 13 min 19 sec) 

Warmup complete CPU 0 instructions: 50000001 cycles: 18127387 (Simulation time: 0 hr 13 min 19 sec) 

Heartbeat CPU 0 instructions: 60000002 cycles: 35555251 heartbeat IPC: 0.573794 cumulative IPC: 0.573794 (Simulation time: 0 hr 16 min 51 sec) 
Heartbeat CPU 0 instructions: 70000002 cycles: 53142841 heartbeat IPC: 0.568583 cumulative IPC: 0.571176 (Simulation time: 0 hr 20 min 38 sec) 
Heartbeat CPU 0 instructions: 80000000 cycles: 70467575 heartbeat IPC: 0.577209 cumulative IPC: 0.573173 (Simulation time: 0 hr 23 min 16 sec) 
Heartbeat CPU 0 instructions: 90000002 cycles: 93568972 heartbeat IPC: 0.432874 cumulative IPC: 0.530212 (Simulation time: 0 hr 24 min 54 sec) 
Heartbeat CPU 0 instructions: 100000003 cycles: 113470920 heartbeat IPC: 0.502463 cumulative IPC: 0.524419 (Simulation time: 0 hr 25 min 49 sec) 
Finished CPU 0 instructions: 50000002 cycles: 95343533 cumulative IPC: 0.524419 (Simulation time: 0 hr 25 min 49 sec) 

ChampSim completed all CPUs

Region of Interest Statistics

CPU 0 cumulative IPC: 0.524419 instructions: 50000002 cycles: 95343533
L1D TOTAL     ACCESS:   18369550  HIT:   16204089  MISS:    2165461
L1D LOAD      ACCESS:    7022643  HIT:    6278524  MISS:     744119
L1D RFO       ACCESS:    5513863  HIT:    4654618  MISS:     859245
L1D PREFETCH  ACCESS:    5833044  HIT:    5270947  MISS:     562097
L1D WRITEBACK ACCESS:          0  HIT:          0  MISS:          0
L1D PREFETCH  REQUESTED:    7060288  ISSUED:    6870508  USEFUL:     199807  USELESS:     362351
L1D AVERAGE MISS LATENCY: 177.784 cycles
L1I TOTAL     ACCESS:   17460724  HIT:   14438233  MISS:    3022491
L1I LOAD      ACCESS:    9910075  HIT:    9875575  MISS:      34500
L1I RFO       ACCESS:          0  HIT:          0  MISS:          0
L1I PREFETCH  ACCESS:    7550649  HIT:    4562658  MISS:    2987991
L1I WRITEBACK ACCESS:          0  HIT:          0  MISS:          0
L1I PREFETCH  REQUESTED:    8049161  ISSUED:    8016403  USEFUL:    2444185  USELESS:     543818
L1I AVERAGE MISS LATENCY: 18.2334 cycles
L2C TOTAL     ACCESS:    7644112  HIT:    5799586  MISS:    1844526
L2C LOAD      ACCESS:     570702  HIT:     242263  MISS:     328439
L2C RFO       ACCESS:     858727  HIT:      17366  MISS:     841361
L2C PREFETCH  ACCESS:    5091766  HIT:    4420966  MISS:     670800
L2C WRITEBACK ACCESS:    1122917  HIT:    1118991  MISS:       3926
L2C PREFETCH  REQUESTED:    4759655  ISSUED:    4754346  USEFUL:      20742  USELESS:     650765
L2C AVERAGE MISS LATENCY: 212.274 cycles
LLC TOTAL     ACCESS:    4163998  HIT:    2642496  MISS:    1521502
LLC LOAD      ACCESS:     328353  HIT:     172479  MISS:     155874
LLC RFO       ACCESS:     841359  HIT:     122750  MISS:     718609
LLC PREFETCH  ACCESS:    1931073  HIT:    1286608  MISS:     644465
LLC WRITEBACK ACCESS:    1063213  HIT:    1060659  MISS:       2554
LLC PREFETCH  REQUESTED:          0  ISSUED:          0  USEFUL:      48305  USELESS:     595244
LLC AVERAGE MISS LATENCY: 271.751 cycles
Major fault: 0 Minor fault: 24698
CPU 0 L1D next line prefetcher final stats

DRAM Statistics
 CHANNEL 0
 RQ ROW_BUFFER_HIT:     372973  ROW_BUFFER_MISS:    1145746
 DBUS_CONGESTED:    1467902
 WQ ROW_BUFFER_HIT:     245591  ROW_BUFFER_MISS:     632247  FULL:          0

 AVG_CONGESTED_CYCLE: 6

CPU 0 Branch Prediction Accuracy: 99.2833% MPKI: 1.20568 Average ROB Occupancy at Mispredict: 182.273

Branch types
NOT_BRANCH: 41588346 83.1767%
BRANCH_DIRECT_JUMP: 464501 0.929002%
BRANCH_INDIRECT: 45704 0.091408%
BRANCH_CONDITIONAL: 6147408 12.2948%
BRANCH_DIRECT_CALL: 675450 1.3509%
BRANCH_INDIRECT_CALL: 201532 0.403064%
BRANCH_RETURN: 876985 1.75397%
BRANCH_OTHER: 0 0%

