Initialize SIGNATURE TABLE
ST_SET: 1
ST_WAY: 256
ST_TAG_BIT: 16
ST_TAG_MASK: ffff

Initialize PATTERN TABLE
PT_SET: 512
PT_WAY: 4
SIG_DELTA_BIT: 7
C_SIG_BIT: 4
C_DELTA_BIT: 4

Initialize PREFETCH FILTER
FILTER_SET: 1024

*** ChampSim Multicore Out-of-Order Simulator ***

Warmup Instructions: 50000000
Simulation Instructions: 50000000
Number of CPUs: 1
LLC sets: 2048
LLC ways: 16
Off-chip DRAM Size: 4096 MB Channels: 1 Width: 64-bit Data Rate: 3200 MT/s

CPU 0 runs /Users/brandon/Documents/CoursesWi22/CSE240C/Homework1/ChampSim/ipc1_public/server_014.champsimtrace.xz
L1I D-JOLT instruction prefetcher has been constructed!
CPU 0 L1D next line prefetcher
Heartbeat CPU 0 instructions: 10000003 cycles: 3519549 heartbeat IPC: 2.84127 cumulative IPC: 2.84127 (Simulation time: 0 hr 1 min 49 sec) 
Heartbeat CPU 0 instructions: 20000000 cycles: 7106430 heartbeat IPC: 2.78794 cumulative IPC: 2.81435 (Simulation time: 0 hr 5 min 11 sec) 
Heartbeat CPU 0 instructions: 30000001 cycles: 10647942 heartbeat IPC: 2.82365 cumulative IPC: 2.81745 (Simulation time: 0 hr 7 min 30 sec) 
Heartbeat CPU 0 instructions: 40000003 cycles: 14196163 heartbeat IPC: 2.81831 cumulative IPC: 2.81766 (Simulation time: 0 hr 10 min 24 sec) 
Heartbeat CPU 0 instructions: 50000000 cycles: 17744835 heartbeat IPC: 2.81795 cumulative IPC: 2.81772 (Simulation time: 0 hr 13 min 5 sec) 

Warmup complete CPU 0 instructions: 50000001 cycles: 17744836 (Simulation time: 0 hr 13 min 5 sec) 

Heartbeat CPU 0 instructions: 60000000 cycles: 24034918 heartbeat IPC: 1.5898 cumulative IPC: 1.5898 (Simulation time: 0 hr 15 min 49 sec) 
Heartbeat CPU 0 instructions: 70000003 cycles: 30327097 heartbeat IPC: 1.58928 cumulative IPC: 1.58954 (Simulation time: 0 hr 18 min 39 sec) 
*** Reached end of trace for Core: 0 Repeating trace: /Users/brandon/Documents/CoursesWi22/CSE240C/Homework1/ChampSim/ipc1_public/server_014.champsimtrace.xz
Heartbeat CPU 0 instructions: 80000001 cycles: 36904937 heartbeat IPC: 1.52026 cumulative IPC: 1.56575 (Simulation time: 0 hr 21 min 14 sec) 
Heartbeat CPU 0 instructions: 90000003 cycles: 44354680 heartbeat IPC: 1.34233 cumulative IPC: 1.5032 (Simulation time: 0 hr 23 min 9 sec) 
Heartbeat CPU 0 instructions: 100000001 cycles: 50843039 heartbeat IPC: 1.54122 cumulative IPC: 1.51066 (Simulation time: 0 hr 24 min 39 sec) 
Finished CPU 0 instructions: 50000000 cycles: 33098203 cumulative IPC: 1.51066 (Simulation time: 0 hr 24 min 39 sec) 

ChampSim completed all CPUs

Region of Interest Statistics

CPU 0 cumulative IPC: 1.51066 instructions: 50000000 cycles: 33098203
L1D TOTAL     ACCESS:   21623955  HIT:   21553093  MISS:      70862
L1D LOAD      ACCESS:    6672026  HIT:    6645097  MISS:      26929
L1D RFO       ACCESS:    8412740  HIT:    8380676  MISS:      32064
L1D PREFETCH  ACCESS:    6539189  HIT:    6527320  MISS:      11869
L1D WRITEBACK ACCESS:          0  HIT:          0  MISS:          0
L1D PREFETCH  REQUESTED:    6676406  ISSUED:    6566854  USEFUL:       3311  USELESS:       8558
L1D AVERAGE MISS LATENCY: 222.897 cycles
L1I TOTAL     ACCESS:   19814903  HIT:   15613919  MISS:    4200984
L1I LOAD      ACCESS:    9767705  HIT:    9733163  MISS:      34542
L1I RFO       ACCESS:          0  HIT:          0  MISS:          0
L1I PREFETCH  ACCESS:   10047198  HIT:    5880756  MISS:    4166442
L1I WRITEBACK ACCESS:          0  HIT:          0  MISS:          0
L1I PREFETCH  REQUESTED:   10554264  ISSUED:   10414619  USEFUL:    2752971  USELESS:    1413444
L1I AVERAGE MISS LATENCY: 14.9152 cycles
L2C TOTAL     ACCESS:    5931749  HIT:    5860049  MISS:      71700
L2C LOAD      ACCESS:      54601  HIT:      35513  MISS:      19088
L2C RFO       ACCESS:      32016  HIT:       1093  MISS:      30923
L2C PREFETCH  ACCESS:    5806764  HIT:    5785093  MISS:      21671
L2C WRITEBACK ACCESS:      38368  HIT:      38350  MISS:         18
L2C PREFETCH  REQUESTED:    4702352  ISSUED:    4695747  USEFUL:       1613  USELESS:      19905
L2C AVERAGE MISS LATENCY: 252.038 cycles
LLC TOTAL     ACCESS:    1190739  HIT:    1125199  MISS:      65540
LLC LOAD      ACCESS:      17879  HIT:       5328  MISS:      12551
LLC RFO       ACCESS:      30923  HIT:       5219  MISS:      25704
LLC PREFETCH  ACCESS:    1107118  HIT:    1079952  MISS:      27166
LLC WRITEBACK ACCESS:      34819  HIT:      34700  MISS:        119
LLC PREFETCH  REQUESTED:          0  ISSUED:          0  USEFUL:       4695  USELESS:      23782
LLC AVERAGE MISS LATENCY: 314.409 cycles
Major fault: 0 Minor fault: 1917
CPU 0 L1D next line prefetcher final stats

DRAM Statistics
 CHANNEL 0
 RQ ROW_BUFFER_HIT:      28827  ROW_BUFFER_MISS:      36581
 DBUS_CONGESTED:      64852
 WQ ROW_BUFFER_HIT:       8155  ROW_BUFFER_MISS:      23455  FULL:          0

 AVG_CONGESTED_CYCLE: 6

CPU 0 Branch Prediction Accuracy: 99.7719% MPKI: 0.38824 Average ROB Occupancy at Mispredict: 155.904

Branch types
NOT_BRANCH: 41489009 82.978%
BRANCH_DIRECT_JUMP: 449417 0.898834%
BRANCH_INDIRECT: 2330 0.00466%
BRANCH_CONDITIONAL: 5470016 10.94%
BRANCH_DIRECT_CALL: 1172188 2.34438%
BRANCH_INDIRECT_CALL: 122383 0.244766%
BRANCH_RETURN: 1294555 2.58911%
BRANCH_OTHER: 0 0%

