Initialize SIGNATURE TABLE
ST_SET: 1
ST_WAY: 256
ST_TAG_BIT: 16
ST_TAG_MASK: ffff

Initialize PATTERN TABLE
PT_SET: 512
PT_WAY: 4
SIG_DELTA_BIT: 7
C_SIG_BIT: 4
C_DELTA_BIT: 4

Initialize PREFETCH FILTER
FILTER_SET: 1024

*** ChampSim Multicore Out-of-Order Simulator ***

Warmup Instructions: 50000000
Simulation Instructions: 50000000
Number of CPUs: 1
LLC sets: 2048
LLC ways: 16
Off-chip DRAM Size: 4096 MB Channels: 1 Width: 64-bit Data Rate: 3200 MT/s

CPU 0 runs /Users/brandon/Documents/CoursesWi22/CSE240C/Homework1/ChampSim/ipc1_public/server_031.champsimtrace.xz
L1I D-JOLT instruction prefetcher has been constructed!
CPU 0 L1D next line prefetcher
Heartbeat CPU 0 instructions: 10000003 cycles: 3522442 heartbeat IPC: 2.83894 cumulative IPC: 2.83894 (Simulation time: 0 hr 2 min 12 sec) 
Heartbeat CPU 0 instructions: 20000002 cycles: 7044094 heartbeat IPC: 2.83958 cumulative IPC: 2.83926 (Simulation time: 0 hr 4 min 31 sec) 
Heartbeat CPU 0 instructions: 30000002 cycles: 10565664 heartbeat IPC: 2.83964 cumulative IPC: 2.83939 (Simulation time: 0 hr 7 min 12 sec) 
Heartbeat CPU 0 instructions: 40000003 cycles: 14081532 heartbeat IPC: 2.84425 cumulative IPC: 2.8406 (Simulation time: 0 hr 10 min 1 sec) 
Heartbeat CPU 0 instructions: 50000001 cycles: 17600051 heartbeat IPC: 2.8421 cumulative IPC: 2.8409 (Simulation time: 0 hr 13 min 12 sec) 

Warmup complete CPU 0 instructions: 50000001 cycles: 17600051 (Simulation time: 0 hr 13 min 12 sec) 

Heartbeat CPU 0 instructions: 60000001 cycles: 25116048 heartbeat IPC: 1.3305 cumulative IPC: 1.3305 (Simulation time: 0 hr 15 min 38 sec) 
Heartbeat CPU 0 instructions: 70000002 cycles: 32688905 heartbeat IPC: 1.32051 cumulative IPC: 1.32548 (Simulation time: 0 hr 17 min 28 sec) 
*** Reached end of trace for Core: 0 Repeating trace: /Users/brandon/Documents/CoursesWi22/CSE240C/Homework1/ChampSim/ipc1_public/server_031.champsimtrace.xz
Heartbeat CPU 0 instructions: 80000000 cycles: 40137278 heartbeat IPC: 1.34257 cumulative IPC: 1.33113 (Simulation time: 0 hr 19 min 6 sec) 
Heartbeat CPU 0 instructions: 90000003 cycles: 47615317 heartbeat IPC: 1.33725 cumulative IPC: 1.33266 (Simulation time: 0 hr 20 min 33 sec) 
Heartbeat CPU 0 instructions: 100000000 cycles: 55060245 heartbeat IPC: 1.3432 cumulative IPC: 1.33475 (Simulation time: 0 hr 21 min 40 sec) 
Finished CPU 0 instructions: 50000000 cycles: 37460196 cumulative IPC: 1.33475 (Simulation time: 0 hr 21 min 40 sec) 

ChampSim completed all CPUs

Region of Interest Statistics

CPU 0 cumulative IPC: 1.33475 instructions: 50000000 cycles: 37460196
L1D TOTAL     ACCESS:   19482715  HIT:   17578237  MISS:    1904478
L1D LOAD      ACCESS:    6754321  HIT:    5880725  MISS:     873596
L1D RFO       ACCESS:    6319802  HIT:    6027928  MISS:     291874
L1D PREFETCH  ACCESS:    6408592  HIT:    5669584  MISS:     739008
L1D WRITEBACK ACCESS:          0  HIT:          0  MISS:          0
L1D PREFETCH  REQUESTED:    6817649  ISSUED:    6701611  USEFUL:     173392  USELESS:     565621
L1D AVERAGE MISS LATENCY: 23.1741 cycles
L1I TOTAL     ACCESS:   17190075  HIT:   13656261  MISS:    3533814
L1I LOAD      ACCESS:    9736982  HIT:    9703077  MISS:      33905
L1I RFO       ACCESS:          0  HIT:          0  MISS:          0
L1I PREFETCH  ACCESS:    7453093  HIT:    3953184  MISS:    3499909
L1I WRITEBACK ACCESS:          0  HIT:          0  MISS:          0
L1I PREFETCH  REQUESTED:    7983742  ISSUED:    7855351  USEFUL:    3019563  USELESS:     480348
L1I AVERAGE MISS LATENCY: 18.3896 cycles
L2C TOTAL     ACCESS:    7781835  HIT:    7068256  MISS:     713579
L2C LOAD      ACCESS:     856768  HIT:     708732  MISS:     148036
L2C RFO       ACCESS:     289637  HIT:     245931  MISS:      43706
L2C PREFETCH  ACCESS:    6018486  HIT:    5498258  MISS:     520228
L2C WRITEBACK ACCESS:     616944  HIT:     615335  MISS:       1609
L2C PREFETCH  REQUESTED:    5712015  ISSUED:    5700198  USEFUL:       6362  USELESS:     513286
L2C AVERAGE MISS LATENCY: 42.9007 cycles
LLC TOTAL     ACCESS:    2344124  HIT:    2264051  MISS:      80073
LLC LOAD      ACCESS:     147919  HIT:     129275  MISS:      18644
LLC RFO       ACCESS:      43679  HIT:      39517  MISS:       4162
LLC PREFETCH  ACCESS:    2060965  HIT:    2004248  MISS:      56717
LLC WRITEBACK ACCESS:      91561  HIT:      91011  MISS:        550
LLC PREFETCH  REQUESTED:          0  ISSUED:          0  USEFUL:       2516  USELESS:      54371
LLC AVERAGE MISS LATENCY: 158.943 cycles
Major fault: 0 Minor fault: 6047
CPU 0 L1D next line prefetcher final stats

DRAM Statistics
 CHANNEL 0
 RQ ROW_BUFFER_HIT:      21824  ROW_BUFFER_MISS:      57695
 DBUS_CONGESTED:      32918
 WQ ROW_BUFFER_HIT:        784  ROW_BUFFER_MISS:       5046  FULL:          0

 AVG_CONGESTED_CYCLE: 5

CPU 0 Branch Prediction Accuracy: 99.6894% MPKI: 0.58048 Average ROB Occupancy at Mispredict: 145.907

Branch types
NOT_BRANCH: 40655652 81.3113%
BRANCH_DIRECT_JUMP: 546483 1.09297%
BRANCH_INDIRECT: 172433 0.344866%
BRANCH_CONDITIONAL: 6207593 12.4152%
BRANCH_DIRECT_CALL: 1018497 2.03699%
BRANCH_INDIRECT_CALL: 190373 0.380746%
BRANCH_RETURN: 1208855 2.41771%
BRANCH_OTHER: 0 0%

