Initialize SIGNATURE TABLE
ST_SET: 1
ST_WAY: 256
ST_TAG_BIT: 16
ST_TAG_MASK: ffff

Initialize PATTERN TABLE
PT_SET: 512
PT_WAY: 4
SIG_DELTA_BIT: 7
C_SIG_BIT: 4
C_DELTA_BIT: 4

Initialize PREFETCH FILTER
FILTER_SET: 1024

*** ChampSim Multicore Out-of-Order Simulator ***

Warmup Instructions: 50000000
Simulation Instructions: 50000000
Number of CPUs: 1
LLC sets: 2048
LLC ways: 16
Off-chip DRAM Size: 4096 MB Channels: 1 Width: 64-bit Data Rate: 3200 MT/s

CPU 0 runs /Users/brandon/Documents/CoursesWi22/CSE240C/Homework1/ChampSim/ipc1_public/server_035.champsimtrace.xz
L1I D-JOLT instruction prefetcher has been constructed!
CPU 0 L1D next line prefetcher
Heartbeat CPU 0 instructions: 10000001 cycles: 3338319 heartbeat IPC: 2.99552 cumulative IPC: 2.99552 (Simulation time: 0 hr 2 min 8 sec) 
Heartbeat CPU 0 instructions: 20000000 cycles: 6676240 heartbeat IPC: 2.99588 cumulative IPC: 2.9957 (Simulation time: 0 hr 4 min 24 sec) 
Heartbeat CPU 0 instructions: 30000000 cycles: 10010925 heartbeat IPC: 2.99878 cumulative IPC: 2.99673 (Simulation time: 0 hr 7 min 2 sec) 
Heartbeat CPU 0 instructions: 40000000 cycles: 13350375 heartbeat IPC: 2.99451 cumulative IPC: 2.99617 (Simulation time: 0 hr 9 min 48 sec) 
Heartbeat CPU 0 instructions: 50000003 cycles: 16687392 heartbeat IPC: 2.99669 cumulative IPC: 2.99627 (Simulation time: 0 hr 12 min 54 sec) 

Warmup complete CPU 0 instructions: 50000003 cycles: 16687392 (Simulation time: 0 hr 12 min 54 sec) 

Heartbeat CPU 0 instructions: 60000001 cycles: 25165930 heartbeat IPC: 1.17945 cumulative IPC: 1.17945 (Simulation time: 0 hr 15 min 28 sec) 
Heartbeat CPU 0 instructions: 70000003 cycles: 33300914 heartbeat IPC: 1.22926 cumulative IPC: 1.20384 (Simulation time: 0 hr 17 min 21 sec) 
Heartbeat CPU 0 instructions: 80000001 cycles: 41595908 heartbeat IPC: 1.20555 cumulative IPC: 1.20441 (Simulation time: 0 hr 19 min 1 sec) 
Heartbeat CPU 0 instructions: 90000002 cycles: 49201165 heartbeat IPC: 1.31488 cumulative IPC: 1.23025 (Simulation time: 0 hr 20 min 29 sec) 
Heartbeat CPU 0 instructions: 100000002 cycles: 57454777 heartbeat IPC: 1.21159 cumulative IPC: 1.22647 (Simulation time: 0 hr 21 min 39 sec) 
Finished CPU 0 instructions: 50000003 cycles: 40767386 cumulative IPC: 1.22647 (Simulation time: 0 hr 21 min 39 sec) 

ChampSim completed all CPUs

Region of Interest Statistics

CPU 0 cumulative IPC: 1.22647 instructions: 50000003 cycles: 40767386
L1D TOTAL     ACCESS:   18196616  HIT:   16692434  MISS:    1504182
L1D LOAD      ACCESS:    6127925  HIT:    5425859  MISS:     702066
L1D RFO       ACCESS:    6154653  HIT:    6002634  MISS:     152019
L1D PREFETCH  ACCESS:    5914038  HIT:    5263941  MISS:     650097
L1D WRITEBACK ACCESS:          0  HIT:          0  MISS:          0
L1D PREFETCH  REQUESTED:    6172761  ISSUED:    6072074  USEFUL:     138345  USELESS:     511757
L1D AVERAGE MISS LATENCY: 43.7403 cycles
L1I TOTAL     ACCESS:   19498731  HIT:   15491145  MISS:    4007586
L1I LOAD      ACCESS:    9712402  HIT:    9671103  MISS:      41299
L1I RFO       ACCESS:          0  HIT:          0  MISS:          0
L1I PREFETCH  ACCESS:    9786329  HIT:    5820042  MISS:    3966287
L1I WRITEBACK ACCESS:          0  HIT:          0  MISS:          0
L1I PREFETCH  REQUESTED:   10579301  ISSUED:   10341737  USEFUL:    3352609  USELESS:     613644
L1I AVERAGE MISS LATENCY: 16.0514 cycles
L2C TOTAL     ACCESS:    7492114  HIT:    7185306  MISS:     306808
L2C LOAD      ACCESS:     724000  HIT:     600144  MISS:     123856
L2C RFO       ACCESS:     150204  HIT:     127822  MISS:      22382
L2C PREFETCH  ACCESS:    6252879  HIT:    6094132  MISS:     158747
L2C WRITEBACK ACCESS:     365031  HIT:     363208  MISS:       1823
L2C PREFETCH  REQUESTED:    6252164  ISSUED:    6233032  USEFUL:      13191  USELESS:     145497
L2C AVERAGE MISS LATENCY: 158.907 cycles
LLC TOTAL     ACCESS:    2243810  HIT:    1956896  MISS:     286914
LLC LOAD      ACCESS:     123472  HIT:      40144  MISS:      83328
LLC RFO       ACCESS:      22375  HIT:      11202  MISS:      11173
LLC PREFETCH  ACCESS:    1995216  HIT:    1803867  MISS:     191349
LLC WRITEBACK ACCESS:     102747  HIT:     101683  MISS:       1064
LLC PREFETCH  REQUESTED:          0  ISSUED:          0  USEFUL:      31028  USELESS:     159647
LLC AVERAGE MISS LATENCY: 218.168 cycles
Major fault: 0 Minor fault: 5550
CPU 0 L1D next line prefetcher final stats

DRAM Statistics
 CHANNEL 0
 RQ ROW_BUFFER_HIT:      72488  ROW_BUFFER_MISS:     213351
 DBUS_CONGESTED:     165633
 WQ ROW_BUFFER_HIT:      18502  ROW_BUFFER_MISS:      72502  FULL:          0

 AVG_CONGESTED_CYCLE: 5

CPU 0 Branch Prediction Accuracy: 99.9115% MPKI: 0.17232 Average ROB Occupancy at Mispredict: 219.212

Branch types
NOT_BRANCH: 40267413 80.5348%
BRANCH_DIRECT_JUMP: 771900 1.5438%
BRANCH_INDIRECT: 108179 0.216358%
BRANCH_CONDITIONAL: 6307188 12.6144%
BRANCH_DIRECT_CALL: 1060898 2.1218%
BRANCH_INDIRECT_CALL: 211720 0.42344%
BRANCH_RETURN: 1272639 2.54528%
BRANCH_OTHER: 0 0%

