Initialize SIGNATURE TABLE
ST_SET: 1
ST_WAY: 256
ST_TAG_BIT: 16
ST_TAG_MASK: ffff

Initialize PATTERN TABLE
PT_SET: 512
PT_WAY: 4
SIG_DELTA_BIT: 7
C_SIG_BIT: 4
C_DELTA_BIT: 4

Initialize PREFETCH FILTER
FILTER_SET: 1024

*** ChampSim Multicore Out-of-Order Simulator ***

Warmup Instructions: 50000000
Simulation Instructions: 50000000
Number of CPUs: 1
LLC sets: 2048
LLC ways: 16
Off-chip DRAM Size: 4096 MB Channels: 1 Width: 64-bit Data Rate: 3200 MT/s

CPU 0 runs /Users/brandon/Documents/CoursesWi22/CSE240C/Homework1/ChampSim/ipc1_public/server_003.champsimtrace.xz
L1I D-JOLT instruction prefetcher has been constructed!
CPU 0 L1D next line prefetcher
Heartbeat CPU 0 instructions: 10000002 cycles: 3217749 heartbeat IPC: 3.10776 cumulative IPC: 3.10776 (Simulation time: 0 hr 1 min 43 sec) 
Heartbeat CPU 0 instructions: 20000000 cycles: 6532932 heartbeat IPC: 3.01642 cumulative IPC: 3.06141 (Simulation time: 0 hr 4 min 57 sec) 
Heartbeat CPU 0 instructions: 30000000 cycles: 9737937 heartbeat IPC: 3.12012 cumulative IPC: 3.08073 (Simulation time: 0 hr 7 min 8 sec) 
Heartbeat CPU 0 instructions: 40000001 cycles: 13151930 heartbeat IPC: 2.92912 cumulative IPC: 3.04138 (Simulation time: 0 hr 9 min 36 sec) 
Heartbeat CPU 0 instructions: 50000002 cycles: 16870824 heartbeat IPC: 2.68897 cumulative IPC: 2.9637 (Simulation time: 0 hr 12 min 33 sec) 

Warmup complete CPU 0 instructions: 50000002 cycles: 16870824 (Simulation time: 0 hr 12 min 33 sec) 

Heartbeat CPU 0 instructions: 60000000 cycles: 26171771 heartbeat IPC: 1.07516 cumulative IPC: 1.07516 (Simulation time: 0 hr 14 min 36 sec) 
Heartbeat CPU 0 instructions: 70000003 cycles: 35363272 heartbeat IPC: 1.08796 cumulative IPC: 1.08152 (Simulation time: 0 hr 16 min 37 sec) 
Heartbeat CPU 0 instructions: 80000000 cycles: 45351542 heartbeat IPC: 1.00117 cumulative IPC: 1.05334 (Simulation time: 0 hr 18 min 59 sec) 
Heartbeat CPU 0 instructions: 90000001 cycles: 55328727 heartbeat IPC: 1.00229 cumulative IPC: 1.0401 (Simulation time: 0 hr 21 min 5 sec) 
Heartbeat CPU 0 instructions: 100000001 cycles: 65923227 heartbeat IPC: 0.943886 cumulative IPC: 1.01932 (Simulation time: 0 hr 22 min 45 sec) 
Finished CPU 0 instructions: 50000003 cycles: 49052404 cumulative IPC: 1.01932 (Simulation time: 0 hr 22 min 45 sec) 

ChampSim completed all CPUs

Region of Interest Statistics

CPU 0 cumulative IPC: 1.01932 instructions: 50000003 cycles: 49052404
L1D TOTAL     ACCESS:   19995752  HIT:   18854888  MISS:    1140864
L1D LOAD      ACCESS:    7851958  HIT:    7322140  MISS:     529818
L1D RFO       ACCESS:    4552314  HIT:    4434989  MISS:     117325
L1D PREFETCH  ACCESS:    7591480  HIT:    7097759  MISS:     493721
L1D WRITEBACK ACCESS:          0  HIT:          0  MISS:          0
L1D PREFETCH  REQUESTED:    7911645  ISSUED:    7820241  USEFUL:     155510  USELESS:     338170
L1D AVERAGE MISS LATENCY: 54.0173 cycles
L1I TOTAL     ACCESS:   14853846  HIT:   13392852  MISS:    1460994
L1I LOAD      ACCESS:    9315572  HIT:    9175801  MISS:     139771
L1I RFO       ACCESS:          0  HIT:          0  MISS:          0
L1I PREFETCH  ACCESS:    5538274  HIT:    4217051  MISS:    1321223
L1I WRITEBACK ACCESS:          0  HIT:          0  MISS:          0
L1I PREFETCH  REQUESTED:    6008755  ISSUED:    5830122  USEFUL:     877907  USELESS:     443531
L1I AVERAGE MISS LATENCY: 33.6767 cycles
L2C TOTAL     ACCESS:    3571282  HIT:    2589423  MISS:     981859
L2C LOAD      ACCESS:     613309  HIT:     340074  MISS:     273235
L2C RFO       ACCESS:     114604  HIT:      40510  MISS:      74094
L2C PREFETCH  ACCESS:    2559109  HIT:    1925468  MISS:     633641
L2C WRITEBACK ACCESS:     284260  HIT:     283371  MISS:        889
L2C PREFETCH  REQUESTED:    2359228  ISSUED:    2357369  USEFUL:      34838  USELESS:     596501
L2C AVERAGE MISS LATENCY: 76.0793 cycles
LLC TOTAL     ACCESS:    1823930  HIT:    1476268  MISS:     347662
LLC LOAD      ACCESS:     272998  HIT:     201195  MISS:      71803
LLC RFO       ACCESS:      74092  HIT:      32192  MISS:      41900
LLC PREFETCH  ACCESS:    1312635  HIT:    1080043  MISS:     232592
LLC WRITEBACK ACCESS:     164205  HIT:     162838  MISS:       1367
LLC PREFETCH  REQUESTED:          0  ISSUED:          0  USEFUL:      38341  USELESS:     185317
LLC AVERAGE MISS LATENCY: 184.588 cycles
Major fault: 0 Minor fault: 7777
CPU 0 L1D next line prefetcher final stats

DRAM Statistics
 CHANNEL 0
 RQ ROW_BUFFER_HIT:      72623  ROW_BUFFER_MISS:     273623
 DBUS_CONGESTED:     170012
 WQ ROW_BUFFER_HIT:      24586  ROW_BUFFER_MISS:      77288  FULL:          0

 AVG_CONGESTED_CYCLE: 5

CPU 0 Branch Prediction Accuracy: 95.439% MPKI: 9.02702 Average ROB Occupancy at Mispredict: 67.3239

Branch types
NOT_BRANCH: 40104089 80.2082%
BRANCH_DIRECT_JUMP: 497928 0.995856%
BRANCH_INDIRECT: 130587 0.261174%
BRANCH_CONDITIONAL: 7219018 14.438%
BRANCH_DIRECT_CALL: 625807 1.25161%
BRANCH_INDIRECT_CALL: 389787 0.779574%
BRANCH_RETURN: 1032747 2.06549%
BRANCH_OTHER: 0 0%

