Initialize SIGNATURE TABLE
ST_SET: 1
ST_WAY: 256
ST_TAG_BIT: 16
ST_TAG_MASK: ffff

Initialize PATTERN TABLE
PT_SET: 512
PT_WAY: 4
SIG_DELTA_BIT: 7
C_SIG_BIT: 4
C_DELTA_BIT: 4

Initialize PREFETCH FILTER
FILTER_SET: 1024

*** ChampSim Multicore Out-of-Order Simulator ***

Warmup Instructions: 50000000
Simulation Instructions: 50000000
Number of CPUs: 1
LLC sets: 2048
LLC ways: 16
Off-chip DRAM Size: 4096 MB Channels: 1 Width: 64-bit Data Rate: 3200 MT/s

CPU 0 runs /Users/brandon/Documents/CoursesWi22/CSE240C/Homework1/ChampSim/ipc1_public/server_024.champsimtrace.xz
L1I D-JOLT instruction prefetcher has been constructed!
CPU 0 L1D next line prefetcher
Heartbeat CPU 0 instructions: 10000000 cycles: 3498449 heartbeat IPC: 2.85841 cumulative IPC: 2.85841 (Simulation time: 0 hr 2 min 6 sec) 
Heartbeat CPU 0 instructions: 20000002 cycles: 6989822 heartbeat IPC: 2.8642 cumulative IPC: 2.8613 (Simulation time: 0 hr 4 min 19 sec) 
Heartbeat CPU 0 instructions: 30000000 cycles: 10491349 heartbeat IPC: 2.8559 cumulative IPC: 2.8595 (Simulation time: 0 hr 6 min 55 sec) 
Heartbeat CPU 0 instructions: 40000000 cycles: 13989721 heartbeat IPC: 2.85847 cumulative IPC: 2.85924 (Simulation time: 0 hr 9 min 38 sec) 
Heartbeat CPU 0 instructions: 50000001 cycles: 17478501 heartbeat IPC: 2.86633 cumulative IPC: 2.86066 (Simulation time: 0 hr 12 min 30 sec) 

Warmup complete CPU 0 instructions: 50000001 cycles: 17478501 (Simulation time: 0 hr 12 min 30 sec) 

Heartbeat CPU 0 instructions: 60000003 cycles: 24227543 heartbeat IPC: 1.48169 cumulative IPC: 1.48169 (Simulation time: 0 hr 15 min 5 sec) 
Heartbeat CPU 0 instructions: 70000000 cycles: 31010308 heartbeat IPC: 1.47432 cumulative IPC: 1.478 (Simulation time: 0 hr 16 min 52 sec) 
*** Reached end of trace for Core: 0 Repeating trace: /Users/brandon/Documents/CoursesWi22/CSE240C/Homework1/ChampSim/ipc1_public/server_024.champsimtrace.xz
Heartbeat CPU 0 instructions: 80000003 cycles: 37779255 heartbeat IPC: 1.47734 cumulative IPC: 1.47778 (Simulation time: 0 hr 18 min 25 sec) 
Heartbeat CPU 0 instructions: 90000003 cycles: 44599402 heartbeat IPC: 1.46624 cumulative IPC: 1.47488 (Simulation time: 0 hr 19 min 51 sec) 
Heartbeat CPU 0 instructions: 100000002 cycles: 51378907 heartbeat IPC: 1.47503 cumulative IPC: 1.47491 (Simulation time: 0 hr 21 min 9 sec) 
Finished CPU 0 instructions: 50000001 cycles: 33900406 cumulative IPC: 1.47491 (Simulation time: 0 hr 21 min 9 sec) 

ChampSim completed all CPUs

Region of Interest Statistics

CPU 0 cumulative IPC: 1.47491 instructions: 50000001 cycles: 33900406
L1D TOTAL     ACCESS:   19648329  HIT:   18130869  MISS:    1517460
L1D LOAD      ACCESS:    6915669  HIT:    6234935  MISS:     680734
L1D RFO       ACCESS:    6148984  HIT:    5874920  MISS:     274064
L1D PREFETCH  ACCESS:    6583676  HIT:    6021014  MISS:     562662
L1D WRITEBACK ACCESS:          0  HIT:          0  MISS:          0
L1D PREFETCH  REQUESTED:    6969483  ISSUED:    6847038  USEFUL:     135395  USELESS:     427272
L1D AVERAGE MISS LATENCY: 25.882 cycles
L1I TOTAL     ACCESS:   15187072  HIT:   12254328  MISS:    2932744
L1I LOAD      ACCESS:    9342599  HIT:    9299772  MISS:      42827
L1I RFO       ACCESS:          0  HIT:          0  MISS:          0
L1I PREFETCH  ACCESS:    5844473  HIT:    2954556  MISS:    2889917
L1I WRITEBACK ACCESS:          0  HIT:          0  MISS:          0
L1I PREFETCH  REQUESTED:    6206834  ISSUED:    6142025  USEFUL:    2493267  USELESS:     396646
L1I AVERAGE MISS LATENCY: 19.6217 cycles
L2C TOTAL     ACCESS:    6177269  HIT:    5368557  MISS:     808712
L2C LOAD      ACCESS:     657524  HIT:     511282  MISS:     146242
L2C RFO       ACCESS:     272175  HIT:     182514  MISS:      89661
L2C PREFETCH  ACCESS:    4727405  HIT:    4157861  MISS:     569544
L2C WRITEBACK ACCESS:     520165  HIT:     516900  MISS:       3265
L2C PREFETCH  REQUESTED:    4391653  ISSUED:    4385998  USEFUL:      11686  USELESS:     557563
L2C AVERAGE MISS LATENCY: 42.0701 cycles
LLC TOTAL     ACCESS:    2139614  HIT:    2087643  MISS:      51971
LLC LOAD      ACCESS:     145974  HIT:     140432  MISS:       5542
LLC RFO       ACCESS:      89621  HIT:      67416  MISS:      22205
LLC PREFETCH  ACCESS:    1753603  HIT:    1729633  MISS:      23970
LLC WRITEBACK ACCESS:     150416  HIT:     150162  MISS:        254
LLC PREFETCH  REQUESTED:          0  ISSUED:          0  USEFUL:       1998  USELESS:      22246
LLC AVERAGE MISS LATENCY: 200.117 cycles
Major fault: 0 Minor fault: 2373
CPU 0 L1D next line prefetcher final stats

DRAM Statistics
 CHANNEL 0
 RQ ROW_BUFFER_HIT:      17597  ROW_BUFFER_MISS:      34102
 DBUS_CONGESTED:      37913
 WQ ROW_BUFFER_HIT:       2644  ROW_BUFFER_MISS:      22757  FULL:          0

 AVG_CONGESTED_CYCLE: 6

CPU 0 Branch Prediction Accuracy: 99.7477% MPKI: 0.46156 Average ROB Occupancy at Mispredict: 175.498

Branch types
NOT_BRANCH: 40853597 81.7072%
BRANCH_DIRECT_JUMP: 566815 1.13363%
BRANCH_INDIRECT: 197171 0.394342%
BRANCH_CONDITIONAL: 6308406 12.6168%
BRANCH_DIRECT_CALL: 876399 1.7528%
BRANCH_INDIRECT_CALL: 160491 0.320982%
BRANCH_RETURN: 1036885 2.07377%
BRANCH_OTHER: 0 0%

