Initialize SIGNATURE TABLE
ST_SET: 1
ST_WAY: 256
ST_TAG_BIT: 16
ST_TAG_MASK: ffff

Initialize PATTERN TABLE
PT_SET: 512
PT_WAY: 4
SIG_DELTA_BIT: 7
C_SIG_BIT: 4
C_DELTA_BIT: 4

Initialize PREFETCH FILTER
FILTER_SET: 1024

*** ChampSim Multicore Out-of-Order Simulator ***

Warmup Instructions: 50000000
Simulation Instructions: 50000000
Number of CPUs: 1
LLC sets: 2048
LLC ways: 16
Off-chip DRAM Size: 4096 MB Channels: 1 Width: 64-bit Data Rate: 3200 MT/s

CPU 0 runs /Users/brandon/Documents/CoursesWi22/CSE240C/Homework1/ChampSim/ipc1_public/server_020.champsimtrace.xz
L1I D-JOLT instruction prefetcher has been constructed!
CPU 0 L1D next line prefetcher
Heartbeat CPU 0 instructions: 10000003 cycles: 3621436 heartbeat IPC: 2.76134 cumulative IPC: 2.76134 (Simulation time: 0 hr 1 min 53 sec) 
Heartbeat CPU 0 instructions: 20000002 cycles: 7247511 heartbeat IPC: 2.7578 cumulative IPC: 2.75957 (Simulation time: 0 hr 5 min 22 sec) 
Heartbeat CPU 0 instructions: 30000001 cycles: 10866535 heartbeat IPC: 2.76318 cumulative IPC: 2.76077 (Simulation time: 0 hr 7 min 43 sec) 
Heartbeat CPU 0 instructions: 40000002 cycles: 14487147 heartbeat IPC: 2.76196 cumulative IPC: 2.76107 (Simulation time: 0 hr 10 min 49 sec) 
Heartbeat CPU 0 instructions: 50000001 cycles: 18120925 heartbeat IPC: 2.75196 cumulative IPC: 2.75924 (Simulation time: 0 hr 13 min 23 sec) 

Warmup complete CPU 0 instructions: 50000001 cycles: 18120925 (Simulation time: 0 hr 13 min 23 sec) 

Heartbeat CPU 0 instructions: 60000003 cycles: 35592922 heartbeat IPC: 0.572345 cumulative IPC: 0.572345 (Simulation time: 0 hr 16 min 55 sec) 
Heartbeat CPU 0 instructions: 70000002 cycles: 53112492 heartbeat IPC: 0.57079 cumulative IPC: 0.571566 (Simulation time: 0 hr 20 min 41 sec) 
Heartbeat CPU 0 instructions: 80000002 cycles: 70591236 heartbeat IPC: 0.572123 cumulative IPC: 0.571752 (Simulation time: 0 hr 23 min 20 sec) 
Heartbeat CPU 0 instructions: 90000001 cycles: 87985907 heartbeat IPC: 0.574889 cumulative IPC: 0.572533 (Simulation time: 0 hr 24 min 57 sec) 
Heartbeat CPU 0 instructions: 100000002 cycles: 105477116 heartbeat IPC: 0.571716 cumulative IPC: 0.572369 (Simulation time: 0 hr 25 min 52 sec) 
Finished CPU 0 instructions: 50000001 cycles: 87356191 cumulative IPC: 0.572369 (Simulation time: 0 hr 25 min 52 sec) 

ChampSim completed all CPUs

Region of Interest Statistics

CPU 0 cumulative IPC: 0.572369 instructions: 50000001 cycles: 87356191
L1D TOTAL     ACCESS:   18639568  HIT:   16435375  MISS:    2204193
L1D LOAD      ACCESS:    7047923  HIT:    6329125  MISS:     718798
L1D RFO       ACCESS:    5809478  HIT:    4863548  MISS:     945930
L1D PREFETCH  ACCESS:    5782167  HIT:    5242702  MISS:     539465
L1D WRITEBACK ACCESS:          0  HIT:          0  MISS:          0
L1D PREFETCH  REQUESTED:    7089565  ISSUED:    6889599  USEFUL:     200226  USELESS:     339158
L1D AVERAGE MISS LATENCY: 178.306 cycles
L1I TOTAL     ACCESS:   18584342  HIT:   15148866  MISS:    3435476
L1I LOAD      ACCESS:   10121436  HIT:   10075510  MISS:      45926
L1I RFO       ACCESS:          0  HIT:          0  MISS:          0
L1I PREFETCH  ACCESS:    8462906  HIT:    5073356  MISS:    3389550
L1I WRITEBACK ACCESS:          0  HIT:          0  MISS:          0
L1I PREFETCH  REQUESTED:    9064556  ISSUED:    9012398  USEFUL:    2710732  USELESS:     678846
L1I AVERAGE MISS LATENCY: 18.1849 cycles
L2C TOTAL     ACCESS:    8270101  HIT:    6409739  MISS:    1860362
L2C LOAD      ACCESS:     533773  HIT:     266781  MISS:     266992
L2C RFO       ACCESS:     945478  HIT:      20491  MISS:     924987
L2C PREFETCH  ACCESS:    5627282  HIT:    4960643  MISS:     666639
L2C WRITEBACK ACCESS:    1163568  HIT:    1161824  MISS:       1744
L2C PREFETCH  REQUESTED:    5022756  ISSUED:    5018991  USEFUL:      21395  USELESS:     644116
L2C AVERAGE MISS LATENCY: 217.213 cycles
LLC TOTAL     ACCESS:    4236771  HIT:    2765241  MISS:    1471530
LLC LOAD      ACCESS:     266908  HIT:     163439  MISS:     103469
LLC RFO       ACCESS:     924984  HIT:     136723  MISS:     788261
LLC PREFETCH  ACCESS:    1947815  HIT:    1369878  MISS:     577937
LLC WRITEBACK ACCESS:    1097064  HIT:    1095201  MISS:       1863
LLC PREFETCH  REQUESTED:          0  ISSUED:          0  USEFUL:      33048  USELESS:     545227
LLC AVERAGE MISS LATENCY: 284.648 cycles
Major fault: 0 Minor fault: 22094
CPU 0 L1D next line prefetcher final stats

DRAM Statistics
 CHANNEL 0
 RQ ROW_BUFFER_HIT:     411146  ROW_BUFFER_MISS:    1058194
 DBUS_CONGESTED:    1466463
 WQ ROW_BUFFER_HIT:     249633  ROW_BUFFER_MISS:     643212  FULL:          0

 AVG_CONGESTED_CYCLE: 6

CPU 0 Branch Prediction Accuracy: 99.712% MPKI: 0.47638 Average ROB Occupancy at Mispredict: 215.585

Branch types
NOT_BRANCH: 41729517 83.459%
BRANCH_DIRECT_JUMP: 458221 0.916442%
BRANCH_INDIRECT: 49088 0.098176%
BRANCH_CONDITIONAL: 5938533 11.8771%
BRANCH_DIRECT_CALL: 745131 1.49026%
BRANCH_INDIRECT_CALL: 167109 0.334218%
BRANCH_RETURN: 912223 1.82445%
BRANCH_OTHER: 0 0%

