Initialize SIGNATURE TABLE
ST_SET: 1
ST_WAY: 256
ST_TAG_BIT: 16
ST_TAG_MASK: ffff

Initialize PATTERN TABLE
PT_SET: 512
PT_WAY: 4
SIG_DELTA_BIT: 7
C_SIG_BIT: 4
C_DELTA_BIT: 4

Initialize PREFETCH FILTER
FILTER_SET: 1024

*** ChampSim Multicore Out-of-Order Simulator ***

Warmup Instructions: 50000000
Simulation Instructions: 50000000
Number of CPUs: 1
LLC sets: 2048
LLC ways: 16
Off-chip DRAM Size: 4096 MB Channels: 1 Width: 64-bit Data Rate: 3200 MT/s

CPU 0 runs /Users/brandon/Documents/CoursesWi22/CSE240C/Homework1/ChampSim/ipc1_public/server_022.champsimtrace.xz
L1I D-JOLT instruction prefetcher has been constructed!
CPU 0 L1D next line prefetcher
Heartbeat CPU 0 instructions: 10000002 cycles: 3623575 heartbeat IPC: 2.75971 cumulative IPC: 2.75971 (Simulation time: 0 hr 1 min 52 sec) 
Heartbeat CPU 0 instructions: 20000001 cycles: 7253784 heartbeat IPC: 2.75466 cumulative IPC: 2.75718 (Simulation time: 0 hr 5 min 19 sec) 
Heartbeat CPU 0 instructions: 30000003 cycles: 10878001 heartbeat IPC: 2.75922 cumulative IPC: 2.75786 (Simulation time: 0 hr 7 min 41 sec) 
Heartbeat CPU 0 instructions: 40000003 cycles: 14509392 heartbeat IPC: 2.75377 cumulative IPC: 2.75684 (Simulation time: 0 hr 10 min 46 sec) 
Heartbeat CPU 0 instructions: 50000002 cycles: 18130789 heartbeat IPC: 2.76136 cumulative IPC: 2.75774 (Simulation time: 0 hr 13 min 23 sec) 

Warmup complete CPU 0 instructions: 50000002 cycles: 18130789 (Simulation time: 0 hr 13 min 23 sec) 

Heartbeat CPU 0 instructions: 60000000 cycles: 34916748 heartbeat IPC: 0.595736 cumulative IPC: 0.595736 (Simulation time: 0 hr 16 min 53 sec) 
Heartbeat CPU 0 instructions: 70000001 cycles: 51710536 heartbeat IPC: 0.595458 cumulative IPC: 0.595597 (Simulation time: 0 hr 20 min 39 sec) 
Heartbeat CPU 0 instructions: 80000001 cycles: 68344383 heartbeat IPC: 0.601184 cumulative IPC: 0.597448 (Simulation time: 0 hr 23 min 18 sec) 
Heartbeat CPU 0 instructions: 90000003 cycles: 85187264 heartbeat IPC: 0.593723 cumulative IPC: 0.596512 (Simulation time: 0 hr 24 min 57 sec) 
Heartbeat CPU 0 instructions: 100000003 cycles: 101869465 heartbeat IPC: 0.599441 cumulative IPC: 0.597096 (Simulation time: 0 hr 25 min 52 sec) 
Finished CPU 0 instructions: 50000001 cycles: 83738676 cumulative IPC: 0.597096 (Simulation time: 0 hr 25 min 52 sec) 

ChampSim completed all CPUs

Region of Interest Statistics

CPU 0 cumulative IPC: 0.597096 instructions: 50000001 cycles: 83738676
L1D TOTAL     ACCESS:   18684081  HIT:   16473343  MISS:    2210738
L1D LOAD      ACCESS:    7051596  HIT:    6345641  MISS:     705955
L1D RFO       ACCESS:    5882617  HIT:    4903137  MISS:     979480
L1D PREFETCH  ACCESS:    5749868  HIT:    5224565  MISS:     525303
L1D WRITEBACK ACCESS:          0  HIT:          0  MISS:          0
L1D PREFETCH  REQUESTED:    7093653  ISSUED:    6886950  USEFUL:     204127  USELESS:     321181
L1D AVERAGE MISS LATENCY: 182.048 cycles
L1I TOTAL     ACCESS:   18936952  HIT:   15402139  MISS:    3534813
L1I LOAD      ACCESS:   10177937  HIT:   10139067  MISS:      38870
L1I RFO       ACCESS:          0  HIT:          0  MISS:          0
L1I PREFETCH  ACCESS:    8759015  HIT:    5263072  MISS:    3495943
L1I WRITEBACK ACCESS:          0  HIT:          0  MISS:          0
L1I PREFETCH  REQUESTED:    9414223  ISSUED:    9343543  USEFUL:    2788213  USELESS:     707752
L1I AVERAGE MISS LATENCY: 17.3256 cycles
L2C TOTAL     ACCESS:    8437165  HIT:    6570398  MISS:    1866767
L2C LOAD      ACCESS:     509222  HIT:     262879  MISS:     246343
L2C RFO       ACCESS:     978992  HIT:      20020  MISS:     958972
L2C PREFETCH  ACCESS:    5763771  HIT:    5104689  MISS:     659082
L2C WRITEBACK ACCESS:    1185180  HIT:    1182810  MISS:       2370
L2C PREFETCH  REQUESTED:    5099091  ISSUED:    5094599  USEFUL:      19336  USELESS:     639795
L2C AVERAGE MISS LATENCY: 220.858 cycles
LLC TOTAL     ACCESS:    4242294  HIT:    2844453  MISS:    1397841
LLC LOAD      ACCESS:     246278  HIT:     171969  MISS:      74309
LLC RFO       ACCESS:     958971  HIT:     142103  MISS:     816868
LLC PREFETCH  ACCESS:    1918098  HIT:    1413180  MISS:     504918
LLC WRITEBACK ACCESS:    1118947  HIT:    1117201  MISS:       1746
LLC PREFETCH  REQUESTED:          0  ISSUED:          0  USEFUL:      28304  USELESS:     477170
LLC AVERAGE MISS LATENCY: 297.65 cycles
Major fault: 0 Minor fault: 23509
CPU 0 L1D next line prefetcher final stats

DRAM Statistics
 CHANNEL 0
 RQ ROW_BUFFER_HIT:     400805  ROW_BUFFER_MISS:     995072
 DBUS_CONGESTED:    1449888
 WQ ROW_BUFFER_HIT:     260211  ROW_BUFFER_MISS:     641187  FULL:          0

 AVG_CONGESTED_CYCLE: 6

CPU 0 Branch Prediction Accuracy: 99.8317% MPKI: 0.27564 Average ROB Occupancy at Mispredict: 222.997

Branch types
NOT_BRANCH: 41811144 83.6223%
BRANCH_DIRECT_JUMP: 445742 0.891484%
BRANCH_INDIRECT: 48876 0.097752%
BRANCH_CONDITIONAL: 5859407 11.7188%
BRANCH_DIRECT_CALL: 758267 1.51653%
BRANCH_INDIRECT_CALL: 159103 0.318206%
BRANCH_RETURN: 917372 1.83474%
BRANCH_OTHER: 0 0%

