Initialize SIGNATURE TABLE
ST_SET: 1
ST_WAY: 256
ST_TAG_BIT: 16
ST_TAG_MASK: ffff

Initialize PATTERN TABLE
PT_SET: 512
PT_WAY: 4
SIG_DELTA_BIT: 7
C_SIG_BIT: 4
C_DELTA_BIT: 4

Initialize PREFETCH FILTER
FILTER_SET: 1024

*** ChampSim Multicore Out-of-Order Simulator ***

Warmup Instructions: 50000000
Simulation Instructions: 50000000
Number of CPUs: 1
LLC sets: 2048
LLC ways: 16
Off-chip DRAM Size: 4096 MB Channels: 1 Width: 64-bit Data Rate: 3200 MT/s

CPU 0 runs /Users/brandon/Documents/CoursesWi22/CSE240C/Homework1/ChampSim/ipc1_public/server_028.champsimtrace.xz
L1I D-JOLT instruction prefetcher has been constructed!
CPU 0 L1D next line prefetcher
Heartbeat CPU 0 instructions: 10000001 cycles: 3493994 heartbeat IPC: 2.86205 cumulative IPC: 2.86205 (Simulation time: 0 hr 2 min 9 sec) 
Heartbeat CPU 0 instructions: 20000002 cycles: 6989561 heartbeat IPC: 2.86077 cumulative IPC: 2.86141 (Simulation time: 0 hr 4 min 26 sec) 
Heartbeat CPU 0 instructions: 30000001 cycles: 10482842 heartbeat IPC: 2.86264 cumulative IPC: 2.86182 (Simulation time: 0 hr 7 min 4 sec) 
Heartbeat CPU 0 instructions: 40000002 cycles: 13982293 heartbeat IPC: 2.85759 cumulative IPC: 2.86076 (Simulation time: 0 hr 9 min 52 sec) 
Heartbeat CPU 0 instructions: 50000001 cycles: 17477681 heartbeat IPC: 2.86091 cumulative IPC: 2.86079 (Simulation time: 0 hr 13 min 0 sec) 

Warmup complete CPU 0 instructions: 50000001 cycles: 17477681 (Simulation time: 0 hr 13 min 0 sec) 

Heartbeat CPU 0 instructions: 60000000 cycles: 25004620 heartbeat IPC: 1.32856 cumulative IPC: 1.32856 (Simulation time: 0 hr 15 min 28 sec) 
Heartbeat CPU 0 instructions: 70000000 cycles: 32536327 heartbeat IPC: 1.32772 cumulative IPC: 1.32814 (Simulation time: 0 hr 17 min 18 sec) 
Heartbeat CPU 0 instructions: 80000000 cycles: 40058644 heartbeat IPC: 1.32938 cumulative IPC: 1.32855 (Simulation time: 0 hr 18 min 54 sec) 
*** Reached end of trace for Core: 0 Repeating trace: /Users/brandon/Documents/CoursesWi22/CSE240C/Homework1/ChampSim/ipc1_public/server_028.champsimtrace.xz
Heartbeat CPU 0 instructions: 90000000 cycles: 47552338 heartbeat IPC: 1.33446 cumulative IPC: 1.33002 (Simulation time: 0 hr 20 min 21 sec) 
Heartbeat CPU 0 instructions: 100000003 cycles: 55019461 heartbeat IPC: 1.3392 cumulative IPC: 1.33185 (Simulation time: 0 hr 21 min 32 sec) 
Finished CPU 0 instructions: 50000002 cycles: 37541780 cumulative IPC: 1.33185 (Simulation time: 0 hr 21 min 32 sec) 

ChampSim completed all CPUs

Region of Interest Statistics

CPU 0 cumulative IPC: 1.33185 instructions: 50000002 cycles: 37541780
L1D TOTAL     ACCESS:   19029520  HIT:   16956239  MISS:    2073281
L1D LOAD      ACCESS:    6719480  HIT:    5671610  MISS:    1047870
L1D RFO       ACCESS:    6098288  HIT:    5814350  MISS:     283938
L1D PREFETCH  ACCESS:    6211752  HIT:    5470279  MISS:     741473
L1D WRITEBACK ACCESS:          0  HIT:          0  MISS:          0
L1D PREFETCH  REQUESTED:    6781290  ISSUED:    6671050  USEFUL:     175292  USELESS:     566184
L1D AVERAGE MISS LATENCY: 22.2408 cycles
L1I TOTAL     ACCESS:   16946964  HIT:   13565213  MISS:    3381751
L1I LOAD      ACCESS:    9790531  HIT:    9749695  MISS:      40836
L1I RFO       ACCESS:          0  HIT:          0  MISS:          0
L1I PREFETCH  ACCESS:    7156433  HIT:    3815518  MISS:    3340915
L1I WRITEBACK ACCESS:          0  HIT:          0  MISS:          0
L1I PREFETCH  REQUESTED:    7695830  ISSUED:    7550829  USEFUL:    2897626  USELESS:     443293
L1I AVERAGE MISS LATENCY: 20.0166 cycles
L2C TOTAL     ACCESS:    7731745  HIT:    6763198  MISS:     968547
L2C LOAD      ACCESS:     936155  HIT:     753230  MISS:     182925
L2C RFO       ACCESS:     281659  HIT:     218006  MISS:      63653
L2C PREFETCH  ACCESS:    5909021  HIT:    5191559  MISS:     717462
L2C WRITEBACK ACCESS:     604910  HIT:     600403  MISS:       4507
L2C PREFETCH  REQUESTED:    5701634  ISSUED:    5689942  USEFUL:      13223  USELESS:     704156
L2C AVERAGE MISS LATENCY: 38.5382 cycles
LLC TOTAL     ACCESS:    2683675  HIT:    2613353  MISS:      70322
LLC LOAD      ACCESS:     182597  HIT:     166409  MISS:      16188
LLC RFO       ACCESS:      63648  HIT:      61681  MISS:       1967
LLC PREFETCH  ACCESS:    2310411  HIT:    2258587  MISS:      51824
LLC WRITEBACK ACCESS:     127019  HIT:     126676  MISS:        343
LLC PREFETCH  REQUESTED:          0  ISSUED:          0  USEFUL:       2158  USELESS:      48919
LLC AVERAGE MISS LATENCY: 157.208 cycles
Major fault: 0 Minor fault: 6044
CPU 0 L1D next line prefetcher final stats

DRAM Statistics
 CHANNEL 0
 RQ ROW_BUFFER_HIT:      19051  ROW_BUFFER_MISS:      50928
 DBUS_CONGESTED:      26942
 WQ ROW_BUFFER_HIT:        371  ROW_BUFFER_MISS:       3265  FULL:          0

 AVG_CONGESTED_CYCLE: 4

CPU 0 Branch Prediction Accuracy: 99.7093% MPKI: 0.54708 Average ROB Occupancy at Mispredict: 149.248

Branch types
NOT_BRANCH: 40590918 81.1818%
BRANCH_DIRECT_JUMP: 523493 1.04699%
BRANCH_INDIRECT: 166997 0.333994%
BRANCH_CONDITIONAL: 6365180 12.7304%
BRANCH_DIRECT_CALL: 989493 1.97899%
BRANCH_INDIRECT_CALL: 187203 0.374406%
BRANCH_RETURN: 1176698 2.3534%
BRANCH_OTHER: 0 0%

