Initialize SIGNATURE TABLE
ST_SET: 1
ST_WAY: 256
ST_TAG_BIT: 16
ST_TAG_MASK: ffff

Initialize PATTERN TABLE
PT_SET: 512
PT_WAY: 4
SIG_DELTA_BIT: 7
C_SIG_BIT: 4
C_DELTA_BIT: 4

Initialize PREFETCH FILTER
FILTER_SET: 1024

*** ChampSim Multicore Out-of-Order Simulator ***

Warmup Instructions: 50000000
Simulation Instructions: 50000000
Number of CPUs: 1
LLC sets: 2048
LLC ways: 16
Off-chip DRAM Size: 4096 MB Channels: 1 Width: 64-bit Data Rate: 3200 MT/s

CPU 0 runs /Users/brandon/Documents/CoursesWi22/CSE240C/Homework1/ChampSim/ipc1_public/server_011.champsimtrace.xz
L1I D-JOLT instruction prefetcher has been constructed!
CPU 0 L1D next line prefetcher
Heartbeat CPU 0 instructions: 10000002 cycles: 3202023 heartbeat IPC: 3.12303 cumulative IPC: 3.12303 (Simulation time: 0 hr 1 min 42 sec) 
Heartbeat CPU 0 instructions: 20000001 cycles: 6409508 heartbeat IPC: 3.11771 cumulative IPC: 3.12036 (Simulation time: 0 hr 4 min 57 sec) 
Heartbeat CPU 0 instructions: 30000001 cycles: 9661043 heartbeat IPC: 3.07547 cumulative IPC: 3.10525 (Simulation time: 0 hr 7 min 7 sec) 
Heartbeat CPU 0 instructions: 40000003 cycles: 12859785 heartbeat IPC: 3.12623 cumulative IPC: 3.11047 (Simulation time: 0 hr 9 min 14 sec) 
Heartbeat CPU 0 instructions: 50000000 cycles: 16065630 heartbeat IPC: 3.1193 cumulative IPC: 3.11223 (Simulation time: 0 hr 12 min 15 sec) 

Warmup complete CPU 0 instructions: 50000004 cycles: 16065631 (Simulation time: 0 hr 12 min 15 sec) 

Heartbeat CPU 0 instructions: 60000002 cycles: 23458664 heartbeat IPC: 1.35262 cumulative IPC: 1.35262 (Simulation time: 0 hr 14 min 18 sec) 
Heartbeat CPU 0 instructions: 70000001 cycles: 31322695 heartbeat IPC: 1.27161 cumulative IPC: 1.31087 (Simulation time: 0 hr 16 min 28 sec) 
Heartbeat CPU 0 instructions: 80000003 cycles: 40554039 heartbeat IPC: 1.08327 cumulative IPC: 1.22507 (Simulation time: 0 hr 18 min 31 sec) 
Heartbeat CPU 0 instructions: 90000001 cycles: 48203535 heartbeat IPC: 1.30728 cumulative IPC: 1.24464 (Simulation time: 0 hr 20 min 34 sec) 
Heartbeat CPU 0 instructions: 100000000 cycles: 55594553 heartbeat IPC: 1.35299 cumulative IPC: 1.2649 (Simulation time: 0 hr 22 min 26 sec) 
Finished CPU 0 instructions: 50000003 cycles: 39528934 cumulative IPC: 1.2649 (Simulation time: 0 hr 22 min 26 sec) 

ChampSim completed all CPUs

Region of Interest Statistics

CPU 0 cumulative IPC: 1.2649 instructions: 50000003 cycles: 39528934
L1D TOTAL     ACCESS:   18192552  HIT:   17161488  MISS:    1031064
L1D LOAD      ACCESS:    6798896  HIT:    6317975  MISS:     480921
L1D RFO       ACCESS:    4832981  HIT:    4751062  MISS:      81919
L1D PREFETCH  ACCESS:    6560675  HIT:    6092451  MISS:     468224
L1D WRITEBACK ACCESS:          0  HIT:          0  MISS:          0
L1D PREFETCH  REQUESTED:    6835889  ISSUED:    6743210  USEFUL:     138005  USELESS:     330214
L1D AVERAGE MISS LATENCY: 40.6951 cycles
L1I TOTAL     ACCESS:   15674674  HIT:   13822201  MISS:    1852473
L1I LOAD      ACCESS:    8889991  HIT:    8771859  MISS:     118132
L1I RFO       ACCESS:          0  HIT:          0  MISS:          0
L1I PREFETCH  ACCESS:    6784683  HIT:    5050342  MISS:    1734341
L1I WRITEBACK ACCESS:          0  HIT:          0  MISS:          0
L1I PREFETCH  REQUESTED:    7338267  ISSUED:    7035600  USEFUL:    1237695  USELESS:     496631
L1I AVERAGE MISS LATENCY: 30.3726 cycles
L2C TOTAL     ACCESS:    3866662  HIT:    2719721  MISS:    1146941
L2C LOAD      ACCESS:     540055  HIT:     284391  MISS:     255664
L2C RFO       ACCESS:      80108  HIT:      33949  MISS:      46159
L2C PREFETCH  ACCESS:    2978394  HIT:    2134947  MISS:     843447
L2C WRITEBACK ACCESS:     268105  HIT:     266434  MISS:       1671
L2C PREFETCH  REQUESTED:    2882732  ISSUED:    2879713  USEFUL:      30019  USELESS:     813620
L2C AVERAGE MISS LATENCY: 49.3554 cycles
LLC TOTAL     ACCESS:    2144315  HIT:    1967385  MISS:     176930
LLC LOAD      ACCESS:     255517  HIT:     224895  MISS:      30622
LLC RFO       ACCESS:      46156  HIT:      32131  MISS:      14025
LLC PREFETCH  ACCESS:    1688632  HIT:    1556643  MISS:     131989
LLC WRITEBACK ACCESS:     154010  HIT:     153716  MISS:        294
LLC PREFETCH  REQUESTED:          0  ISSUED:          0  USEFUL:      19588  USELESS:     111890
LLC AVERAGE MISS LATENCY: 172.786 cycles
Major fault: 0 Minor fault: 6982
CPU 0 L1D next line prefetcher final stats

DRAM Statistics
 CHANNEL 0
 RQ ROW_BUFFER_HIT:      31092  ROW_BUFFER_MISS:     145525
 DBUS_CONGESTED:      75856
 WQ ROW_BUFFER_HIT:      12853  ROW_BUFFER_MISS:      49169  FULL:          0

 AVG_CONGESTED_CYCLE: 5

CPU 0 Branch Prediction Accuracy: 97.5565% MPKI: 4.59006 Average ROB Occupancy at Mispredict: 61.0047

Branch types
NOT_BRANCH: 40607199 81.2144%
BRANCH_DIRECT_JUMP: 451601 0.903202%
BRANCH_INDIRECT: 151580 0.30316%
BRANCH_CONDITIONAL: 7041635 14.0833%
BRANCH_DIRECT_CALL: 647827 1.29565%
BRANCH_INDIRECT_CALL: 211373 0.422746%
BRANCH_RETURN: 888439 1.77688%
BRANCH_OTHER: 0 0%

