Initialize SIGNATURE TABLE
ST_SET: 1
ST_WAY: 256
ST_TAG_BIT: 16
ST_TAG_MASK: ffff

Initialize PATTERN TABLE
PT_SET: 512
PT_WAY: 4
SIG_DELTA_BIT: 7
C_SIG_BIT: 4
C_DELTA_BIT: 4

Initialize PREFETCH FILTER
FILTER_SET: 1024

*** ChampSim Multicore Out-of-Order Simulator ***

Warmup Instructions: 50000000
Simulation Instructions: 50000000
Number of CPUs: 1
LLC sets: 2048
LLC ways: 16
Off-chip DRAM Size: 4096 MB Channels: 1 Width: 64-bit Data Rate: 3200 MT/s

CPU 0 runs /Users/brandon/Documents/CoursesWi22/CSE240C/Homework1/ChampSim/ipc1_public/server_018.champsimtrace.xz
L1I D-JOLT instruction prefetcher has been constructed!
CPU 0 L1D next line prefetcher
Heartbeat CPU 0 instructions: 10000003 cycles: 3616639 heartbeat IPC: 2.765 cumulative IPC: 2.765 (Simulation time: 0 hr 1 min 52 sec) 
Heartbeat CPU 0 instructions: 20000001 cycles: 7238324 heartbeat IPC: 2.76115 cumulative IPC: 2.76307 (Simulation time: 0 hr 5 min 20 sec) 
Heartbeat CPU 0 instructions: 30000003 cycles: 10713549 heartbeat IPC: 2.87751 cumulative IPC: 2.80019 (Simulation time: 0 hr 7 min 32 sec) 
Heartbeat CPU 0 instructions: 40000000 cycles: 14225799 heartbeat IPC: 2.84718 cumulative IPC: 2.81179 (Simulation time: 0 hr 10 min 23 sec) 
Heartbeat CPU 0 instructions: 50000003 cycles: 17843269 heartbeat IPC: 2.76436 cumulative IPC: 2.80218 (Simulation time: 0 hr 13 min 7 sec) 

Warmup complete CPU 0 instructions: 50000003 cycles: 17843269 (Simulation time: 0 hr 13 min 7 sec) 

Heartbeat CPU 0 instructions: 60000000 cycles: 35370749 heartbeat IPC: 0.570533 cumulative IPC: 0.570533 (Simulation time: 0 hr 16 min 38 sec) 
Heartbeat CPU 0 instructions: 70000001 cycles: 52975499 heartbeat IPC: 0.568029 cumulative IPC: 0.569278 (Simulation time: 0 hr 20 min 25 sec) 
Heartbeat CPU 0 instructions: 80000000 cycles: 70391818 heartbeat IPC: 0.574174 cumulative IPC: 0.570901 (Simulation time: 0 hr 23 min 8 sec) 
Heartbeat CPU 0 instructions: 90000002 cycles: 87911052 heartbeat IPC: 0.570801 cumulative IPC: 0.570876 (Simulation time: 0 hr 24 min 53 sec) 
Heartbeat CPU 0 instructions: 100000001 cycles: 105425517 heartbeat IPC: 0.570957 cumulative IPC: 0.570892 (Simulation time: 0 hr 25 min 49 sec) 
Finished CPU 0 instructions: 50000002 cycles: 87582250 cumulative IPC: 0.570892 (Simulation time: 0 hr 25 min 49 sec) 

ChampSim completed all CPUs

Region of Interest Statistics

CPU 0 cumulative IPC: 0.570892 instructions: 50000002 cycles: 87582250
L1D TOTAL     ACCESS:   18618833  HIT:   16401037  MISS:    2217796
L1D LOAD      ACCESS:    7042358  HIT:    6318020  MISS:     724338
L1D RFO       ACCESS:    5810613  HIT:    4858234  MISS:     952379
L1D PREFETCH  ACCESS:    5765862  HIT:    5224783  MISS:     541079
L1D WRITEBACK ACCESS:          0  HIT:          0  MISS:          0
L1D PREFETCH  REQUESTED:    7083912  ISSUED:    6881573  USEFUL:     201231  USELESS:     339937
L1D AVERAGE MISS LATENCY: 178.645 cycles
L1I TOTAL     ACCESS:   18533257  HIT:   15044343  MISS:    3488914
L1I LOAD      ACCESS:   10128283  HIT:   10091410  MISS:      36873
L1I RFO       ACCESS:          0  HIT:          0  MISS:          0
L1I PREFETCH  ACCESS:    8404974  HIT:    4952933  MISS:    3452041
L1I WRITEBACK ACCESS:          0  HIT:          0  MISS:          0
L1I PREFETCH  REQUESTED:    8981388  ISSUED:    8938618  USEFUL:    2742377  USELESS:     709561
L1I AVERAGE MISS LATENCY: 17.8859 cycles
L2C TOTAL     ACCESS:    8377381  HIT:    6513133  MISS:    1864248
L2C LOAD      ACCESS:     532054  HIT:     265417  MISS:     266637
L2C RFO       ACCESS:     951771  HIT:      21651  MISS:     930120
L2C PREFETCH  ACCESS:    5723486  HIT:    5058845  MISS:     664641
L2C WRITEBACK ACCESS:    1170070  HIT:    1167220  MISS:       2850
L2C PREFETCH  REQUESTED:    5022805  ISSUED:    5017440  USEFUL:      21256  USELESS:     644343
L2C AVERAGE MISS LATENCY: 217.637 cycles
LLC TOTAL     ACCESS:    4209201  HIT:    2758638  MISS:    1450563
LLC LOAD      ACCESS:     266583  HIT:     164511  MISS:     102072
LLC RFO       ACCESS:     930119  HIT:     136405  MISS:     793714
LLC PREFETCH  ACCESS:    1911485  HIT:    1358635  MISS:     552850
LLC WRITEBACK ACCESS:    1101014  HIT:    1099087  MISS:       1927
LLC PREFETCH  REQUESTED:          0  ISSUED:          0  USEFUL:      30956  USELESS:     522198
LLC AVERAGE MISS LATENCY: 286.54 cycles
Major fault: 0 Minor fault: 22446
CPU 0 L1D next line prefetcher final stats

DRAM Statistics
 CHANNEL 0
 RQ ROW_BUFFER_HIT:     409965  ROW_BUFFER_MISS:    1038275
 DBUS_CONGESTED:    1455714
 WQ ROW_BUFFER_HIT:     256419  ROW_BUFFER_MISS:     642584  FULL:          0

 AVG_CONGESTED_CYCLE: 6

CPU 0 Branch Prediction Accuracy: 99.7114% MPKI: 0.47678 Average ROB Occupancy at Mispredict: 212.855

Branch types
NOT_BRANCH: 41740997 83.482%
BRANCH_DIRECT_JUMP: 458652 0.917304%
BRANCH_INDIRECT: 48282 0.096564%
BRANCH_CONDITIONAL: 5930880 11.8618%
BRANCH_DIRECT_CALL: 744230 1.48846%
BRANCH_INDIRECT_CALL: 166336 0.332672%
BRANCH_RETURN: 910589 1.82118%
BRANCH_OTHER: 0 0%

