Initialize SIGNATURE TABLE
ST_SET: 1
ST_WAY: 256
ST_TAG_BIT: 16
ST_TAG_MASK: ffff

Initialize PATTERN TABLE
PT_SET: 512
PT_WAY: 4
SIG_DELTA_BIT: 7
C_SIG_BIT: 4
C_DELTA_BIT: 4

Initialize PREFETCH FILTER
FILTER_SET: 1024

*** ChampSim Multicore Out-of-Order Simulator ***

Warmup Instructions: 50000000
Simulation Instructions: 50000000
Number of CPUs: 1
LLC sets: 2048
LLC ways: 16
Off-chip DRAM Size: 4096 MB Channels: 1 Width: 64-bit Data Rate: 3200 MT/s

CPU 0 runs /Users/brandon/Documents/CoursesWi22/CSE240C/Homework1/ChampSim/ipc1_public/server_039.champsimtrace.xz
L1I D-JOLT instruction prefetcher has been constructed!
CPU 0 L1D next line prefetcher
Heartbeat CPU 0 instructions: 10000003 cycles: 3451620 heartbeat IPC: 2.89719 cumulative IPC: 2.89719 (Simulation time: 0 hr 2 min 12 sec) 
Heartbeat CPU 0 instructions: 20000002 cycles: 6896284 heartbeat IPC: 2.90304 cumulative IPC: 2.90011 (Simulation time: 0 hr 4 min 31 sec) 
Heartbeat CPU 0 instructions: 30000001 cycles: 10342757 heartbeat IPC: 2.90152 cumulative IPC: 2.90058 (Simulation time: 0 hr 7 min 10 sec) 
Heartbeat CPU 0 instructions: 40000002 cycles: 13784629 heartbeat IPC: 2.9054 cumulative IPC: 2.90178 (Simulation time: 0 hr 9 min 57 sec) 
Heartbeat CPU 0 instructions: 50000001 cycles: 17225871 heartbeat IPC: 2.90593 cumulative IPC: 2.90261 (Simulation time: 0 hr 13 min 7 sec) 

Warmup complete CPU 0 instructions: 50000001 cycles: 17225871 (Simulation time: 0 hr 13 min 7 sec) 

Heartbeat CPU 0 instructions: 60000000 cycles: 22999690 heartbeat IPC: 1.73196 cumulative IPC: 1.73196 (Simulation time: 0 hr 15 min 25 sec) 
Heartbeat CPU 0 instructions: 70000000 cycles: 28771852 heartbeat IPC: 1.73245 cumulative IPC: 1.7322 (Simulation time: 0 hr 17 min 10 sec) 
Heartbeat CPU 0 instructions: 80000000 cycles: 34539431 heartbeat IPC: 1.73383 cumulative IPC: 1.73275 (Simulation time: 0 hr 18 min 40 sec) 
Heartbeat CPU 0 instructions: 90000001 cycles: 40310422 heartbeat IPC: 1.7328 cumulative IPC: 1.73276 (Simulation time: 0 hr 20 min 5 sec) 
Heartbeat CPU 0 instructions: 100000002 cycles: 46089499 heartbeat IPC: 1.73038 cumulative IPC: 1.73228 (Simulation time: 0 hr 21 min 20 sec) 
Finished CPU 0 instructions: 50000001 cycles: 28863628 cumulative IPC: 1.73228 (Simulation time: 0 hr 21 min 20 sec) 

ChampSim completed all CPUs

Region of Interest Statistics

CPU 0 cumulative IPC: 1.73228 instructions: 50000001 cycles: 28863628
L1D TOTAL     ACCESS:   19881266  HIT:   19386569  MISS:     494697
L1D LOAD      ACCESS:    6489359  HIT:    6267758  MISS:     221601
L1D RFO       ACCESS:    7088961  HIT:    7022084  MISS:      66877
L1D PREFETCH  ACCESS:    6302946  HIT:    6096727  MISS:     206219
L1D WRITEBACK ACCESS:          0  HIT:          0  MISS:          0
L1D PREFETCH  REQUESTED:    6505233  ISSUED:    6371969  USEFUL:      50088  USELESS:     156135
L1D AVERAGE MISS LATENCY: 15.0931 cycles
L1I TOTAL     ACCESS:   19388665  HIT:   14189168  MISS:    5199497
L1I LOAD      ACCESS:    9300362  HIT:    9212794  MISS:      87568
L1I RFO       ACCESS:          0  HIT:          0  MISS:          0
L1I PREFETCH  ACCESS:   10088303  HIT:    4976374  MISS:    5111929
L1I WRITEBACK ACCESS:          0  HIT:          0  MISS:          0
L1I PREFETCH  REQUESTED:   10804418  ISSUED:   10482874  USEFUL:    4179454  USELESS:     932471
L1I AVERAGE MISS LATENCY: 14.5899 cycles
L2C TOTAL     ACCESS:    8186642  HIT:    8186574  MISS:         68
L2C LOAD      ACCESS:     290540  HIT:     290537  MISS:          3
L2C RFO       ACCESS:      66752  HIT:      66752  MISS:          0
L2C PREFETCH  ACCESS:    7649309  HIT:    7649244  MISS:         65
L2C WRITEBACK ACCESS:     180041  HIT:     180041  MISS:          0
L2C PREFETCH  REQUESTED:    5496502  ISSUED:    5489929  USEFUL:          1  USELESS:          0
L2C AVERAGE MISS LATENCY: 56.6176 cycles
LLC TOTAL     ACCESS:     827422  HIT:     827041  MISS:        381
LLC LOAD      ACCESS:          3  HIT:          2  MISS:          1
LLC RFO       ACCESS:          0  HIT:          0  MISS:          0
LLC PREFETCH  ACCESS:     827418  HIT:     827038  MISS:        380
LLC WRITEBACK ACCESS:          1  HIT:          1  MISS:          0
LLC PREFETCH  REQUESTED:          0  ISSUED:          0  USEFUL:          2  USELESS:          0
LLC AVERAGE MISS LATENCY: 175.486 cycles
Major fault: 0 Minor fault: 357
CPU 0 L1D next line prefetcher final stats

DRAM Statistics
 CHANNEL 0
 RQ ROW_BUFFER_HIT:         47  ROW_BUFFER_MISS:        334
 DBUS_CONGESTED:         39
 WQ ROW_BUFFER_HIT:          0  ROW_BUFFER_MISS:          0  FULL:          0

 AVG_CONGESTED_CYCLE: 5

CPU 0 Branch Prediction Accuracy: 99.9091% MPKI: 0.1547 Average ROB Occupancy at Mispredict: 302.983

Branch types
NOT_BRANCH: 41494970 82.9899%
BRANCH_DIRECT_JUMP: 491308 0.982616%
BRANCH_INDIRECT: 0 0%
BRANCH_CONDITIONAL: 5595255 11.1905%
BRANCH_DIRECT_CALL: 1028408 2.05682%
BRANCH_INDIRECT_CALL: 180756 0.361512%
BRANCH_RETURN: 1209171 2.41834%
BRANCH_OTHER: 0 0%

