Initialize SIGNATURE TABLE
ST_SET: 1
ST_WAY: 256
ST_TAG_BIT: 16
ST_TAG_MASK: ffff

Initialize PATTERN TABLE
PT_SET: 512
PT_WAY: 4
SIG_DELTA_BIT: 7
C_SIG_BIT: 4
C_DELTA_BIT: 4

Initialize PREFETCH FILTER
FILTER_SET: 1024

*** ChampSim Multicore Out-of-Order Simulator ***

Warmup Instructions: 50000000
Simulation Instructions: 50000000
Number of CPUs: 1
LLC sets: 2048
LLC ways: 16
Off-chip DRAM Size: 4096 MB Channels: 1 Width: 64-bit Data Rate: 3200 MT/s

CPU 0 runs /Users/brandon/Documents/CoursesWi22/CSE240C/Homework1/ChampSim/ipc1_public/server_019.champsimtrace.xz
L1I D-JOLT instruction prefetcher has been constructed!
CPU 0 L1D next line prefetcher
Heartbeat CPU 0 instructions: 10000002 cycles: 3622620 heartbeat IPC: 2.76043 cumulative IPC: 2.76043 (Simulation time: 0 hr 1 min 51 sec) 
Heartbeat CPU 0 instructions: 20000003 cycles: 7246799 heartbeat IPC: 2.75925 cumulative IPC: 2.75984 (Simulation time: 0 hr 5 min 21 sec) 
Heartbeat CPU 0 instructions: 30000002 cycles: 10869860 heartbeat IPC: 2.7601 cumulative IPC: 2.75993 (Simulation time: 0 hr 7 min 41 sec) 
Heartbeat CPU 0 instructions: 40000002 cycles: 14504904 heartbeat IPC: 2.751 cumulative IPC: 2.75769 (Simulation time: 0 hr 10 min 46 sec) 
Heartbeat CPU 0 instructions: 50000001 cycles: 18128278 heartbeat IPC: 2.75986 cumulative IPC: 2.75812 (Simulation time: 0 hr 13 min 22 sec) 

Warmup complete CPU 0 instructions: 50000001 cycles: 18128278 (Simulation time: 0 hr 13 min 22 sec) 

Heartbeat CPU 0 instructions: 60000000 cycles: 37899136 heartbeat IPC: 0.505795 cumulative IPC: 0.505795 (Simulation time: 0 hr 17 min 3 sec) 
Heartbeat CPU 0 instructions: 70000002 cycles: 61519417 heartbeat IPC: 0.423365 cumulative IPC: 0.460924 (Simulation time: 0 hr 20 min 46 sec) 
Heartbeat CPU 0 instructions: 80000001 cycles: 82101641 heartbeat IPC: 0.485856 cumulative IPC: 0.468945 (Simulation time: 0 hr 23 min 21 sec) 
Heartbeat CPU 0 instructions: 90000002 cycles: 99683340 heartbeat IPC: 0.568773 cumulative IPC: 0.490466 (Simulation time: 0 hr 24 min 58 sec) 
Heartbeat CPU 0 instructions: 100000002 cycles: 117216244 heartbeat IPC: 0.570356 cumulative IPC: 0.504602 (Simulation time: 0 hr 25 min 53 sec) 
Finished CPU 0 instructions: 50000001 cycles: 99087966 cumulative IPC: 0.504602 (Simulation time: 0 hr 25 min 53 sec) 

ChampSim completed all CPUs

Region of Interest Statistics

CPU 0 cumulative IPC: 0.504602 instructions: 50000001 cycles: 99087966
L1D TOTAL     ACCESS:   18301718  HIT:   16078222  MISS:    2223496
L1D LOAD      ACCESS:    6976047  HIT:    6223935  MISS:     752112
L1D RFO       ACCESS:    5512640  HIT:    4610748  MISS:     901892
L1D PREFETCH  ACCESS:    5813031  HIT:    5243539  MISS:     569492
L1D WRITEBACK ACCESS:          0  HIT:          0  MISS:          0
L1D PREFETCH  REQUESTED:    7013051  ISSUED:    6827341  USEFUL:     200243  USELESS:     369157
L1D AVERAGE MISS LATENCY: 189.218 cycles
L1I TOTAL     ACCESS:   17722562  HIT:   14498207  MISS:    3224355
L1I LOAD      ACCESS:    9882779  HIT:    9843399  MISS:      39380
L1I RFO       ACCESS:          0  HIT:          0  MISS:          0
L1I PREFETCH  ACCESS:    7839783  HIT:    4654808  MISS:    3184975
L1I WRITEBACK ACCESS:          0  HIT:          0  MISS:          0
L1I PREFETCH  REQUESTED:    8474002  ISSUED:    8418440  USEFUL:    2456429  USELESS:     728482
L1I AVERAGE MISS LATENCY: 18.9458 cycles
L2C TOTAL     ACCESS:    8034960  HIT:    6138663  MISS:    1896297
L2C LOAD      ACCESS:     583855  HIT:     248179  MISS:     335676
L2C RFO       ACCESS:     901421  HIT:      18252  MISS:     883169
L2C PREFETCH  ACCESS:    5375101  HIT:    4699816  MISS:     675285
L2C WRITEBACK ACCESS:    1174583  HIT:    1172416  MISS:       2167
L2C PREFETCH  REQUESTED:    4941537  ISSUED:    4937556  USEFUL:      21431  USELESS:     652426
L2C AVERAGE MISS LATENCY: 226.366 cycles
LLC TOTAL     ACCESS:    4397156  HIT:    2769976  MISS:    1627180
LLC LOAD      ACCESS:     335619  HIT:     167227  MISS:     168392
LLC RFO       ACCESS:     883167  HIT:     114728  MISS:     768439
LLC PREFETCH  ACCESS:    2067337  HIT:    1379000  MISS:     688337
LLC WRITEBACK ACCESS:    1111033  HIT:    1109021  MISS:       2012
LLC PREFETCH  REQUESTED:          0  ISSUED:          0  USEFUL:      53370  USELESS:     633780
LLC AVERAGE MISS LATENCY: 281.309 cycles
Major fault: 0 Minor fault: 25694
CPU 0 L1D next line prefetcher final stats

DRAM Statistics
 CHANNEL 0
 RQ ROW_BUFFER_HIT:     399247  ROW_BUFFER_MISS:    1225682
 DBUS_CONGESTED:    1599613
 WQ ROW_BUFFER_HIT:     259110  ROW_BUFFER_MISS:     680978  FULL:          0

 AVG_CONGESTED_CYCLE: 6

CPU 0 Branch Prediction Accuracy: 99.2186% MPKI: 1.32192 Average ROB Occupancy at Mispredict: 179.499

Branch types
NOT_BRANCH: 41540785 83.0816%
BRANCH_DIRECT_JUMP: 462384 0.924768%
BRANCH_INDIRECT: 45460 0.09092%
BRANCH_CONDITIONAL: 6209281 12.4186%
BRANCH_DIRECT_CALL: 666241 1.33248%
BRANCH_INDIRECT_CALL: 204728 0.409456%
BRANCH_RETURN: 870978 1.74196%
BRANCH_OTHER: 0 0%

