Initialize SIGNATURE TABLE
ST_SET: 1
ST_WAY: 256
ST_TAG_BIT: 16
ST_TAG_MASK: ffff

Initialize PATTERN TABLE
PT_SET: 512
PT_WAY: 4
SIG_DELTA_BIT: 7
C_SIG_BIT: 4
C_DELTA_BIT: 4

Initialize PREFETCH FILTER
FILTER_SET: 1024

*** ChampSim Multicore Out-of-Order Simulator ***

Warmup Instructions: 50000000
Simulation Instructions: 50000000
Number of CPUs: 1
LLC sets: 2048
LLC ways: 16
Off-chip DRAM Size: 4096 MB Channels: 1 Width: 64-bit Data Rate: 3200 MT/s

CPU 0 runs /Users/brandon/Documents/CoursesWi22/CSE240C/Homework1/ChampSim/ipc1_public/spec_perlbench_001.champsimtrace.xz
L1I D-JOLT instruction prefetcher has been constructed!
CPU 0 L1D next line prefetcher
Heartbeat CPU 0 instructions: 10000000 cycles: 3276021 heartbeat IPC: 3.05248 cumulative IPC: 3.05248 (Simulation time: 0 hr 1 min 56 sec) 
Heartbeat CPU 0 instructions: 20000000 cycles: 6541374 heartbeat IPC: 3.06246 cumulative IPC: 3.05746 (Simulation time: 0 hr 4 min 2 sec) 
Heartbeat CPU 0 instructions: 30000002 cycles: 9859078 heartbeat IPC: 3.01413 cumulative IPC: 3.04288 (Simulation time: 0 hr 6 min 36 sec) 
Heartbeat CPU 0 instructions: 40000002 cycles: 13114927 heartbeat IPC: 3.0714 cumulative IPC: 3.04996 (Simulation time: 0 hr 9 min 6 sec) 
Heartbeat CPU 0 instructions: 50000001 cycles: 16389266 heartbeat IPC: 3.05405 cumulative IPC: 3.05078 (Simulation time: 0 hr 11 min 47 sec) 

Warmup complete CPU 0 instructions: 50000001 cycles: 16389266 (Simulation time: 0 hr 11 min 47 sec) 

Heartbeat CPU 0 instructions: 60000001 cycles: 24722186 heartbeat IPC: 1.20006 cumulative IPC: 1.20006 (Simulation time: 0 hr 13 min 55 sec) 
Heartbeat CPU 0 instructions: 70000003 cycles: 32910960 heartbeat IPC: 1.22118 cumulative IPC: 1.21053 (Simulation time: 0 hr 15 min 50 sec) 
Heartbeat CPU 0 instructions: 80000000 cycles: 41376999 heartbeat IPC: 1.18119 cumulative IPC: 1.20059 (Simulation time: 0 hr 17 min 16 sec) 
Heartbeat CPU 0 instructions: 90000000 cycles: 47136062 heartbeat IPC: 1.73639 cumulative IPC: 1.30095 (Simulation time: 0 hr 18 min 15 sec) 
Heartbeat CPU 0 instructions: 100000002 cycles: 53034353 heartbeat IPC: 1.69541 cumulative IPC: 1.36444 (Simulation time: 0 hr 19 min 13 sec) 
Finished CPU 0 instructions: 50000001 cycles: 36645087 cumulative IPC: 1.36444 (Simulation time: 0 hr 19 min 13 sec) 

ChampSim completed all CPUs

Region of Interest Statistics

CPU 0 cumulative IPC: 1.36444 instructions: 50000001 cycles: 36645087
L1D TOTAL     ACCESS:   20681883  HIT:   20266803  MISS:     415080
L1D LOAD      ACCESS:    7170682  HIT:    6957036  MISS:     213646
L1D RFO       ACCESS:    6542259  HIT:    6523736  MISS:      18523
L1D PREFETCH  ACCESS:    6968942  HIT:    6786031  MISS:     182911
L1D WRITEBACK ACCESS:          0  HIT:          0  MISS:          0
L1D PREFETCH  REQUESTED:    7186452  ISSUED:    7069971  USEFUL:      55240  USELESS:     127666
L1D AVERAGE MISS LATENCY: 59.4578 cycles
L1I TOTAL     ACCESS:   15432255  HIT:   14160704  MISS:    1271551
L1I LOAD      ACCESS:    9175784  HIT:    9117177  MISS:      58607
L1I RFO       ACCESS:          0  HIT:          0  MISS:          0
L1I PREFETCH  ACCESS:    6256471  HIT:    5043527  MISS:    1212944
L1I WRITEBACK ACCESS:          0  HIT:          0  MISS:          0
L1I PREFETCH  REQUESTED:    6696286  ISSUED:    6381831  USEFUL:     548048  USELESS:     664922
L1I AVERAGE MISS LATENCY: 16.4367 cycles
L2C TOTAL     ACCESS:    2383393  HIT:    2212519  MISS:     170874
L2C LOAD      ACCESS:     263300  HIT:     180791  MISS:      82509
L2C RFO       ACCESS:      18265  HIT:      12676  MISS:       5589
L2C PREFETCH  ACCESS:    2022889  HIT:    1940578  MISS:      82311
L2C WRITEBACK ACCESS:      78939  HIT:      78474  MISS:        465
L2C PREFETCH  REQUESTED:    1278767  ISSUED:    1278686  USEFUL:       7216  USELESS:      75173
L2C AVERAGE MISS LATENCY: 118.744 cycles
LLC TOTAL     ACCESS:     430201  HIT:     285455  MISS:     144746
LLC LOAD      ACCESS:      82505  HIT:      31823  MISS:      50682
LLC RFO       ACCESS:       5589  HIT:       2560  MISS:       3029
LLC PREFETCH  ACCESS:     315891  HIT:     225332  MISS:      90559
LLC WRITEBACK ACCESS:      26216  HIT:      25740  MISS:        476
LLC PREFETCH  REQUESTED:          0  ISSUED:          0  USEFUL:      13529  USELESS:      77393
LLC AVERAGE MISS LATENCY: 159.571 cycles
Major fault: 0 Minor fault: 6365
CPU 0 L1D next line prefetcher final stats

DRAM Statistics
 CHANNEL 0
 RQ ROW_BUFFER_HIT:      33084  ROW_BUFFER_MISS:     111185
 DBUS_CONGESTED:      55915
 WQ ROW_BUFFER_HIT:       4420  ROW_BUFFER_MISS:      12995  FULL:          0

 AVG_CONGESTED_CYCLE: 4

CPU 0 Branch Prediction Accuracy: 98.7418% MPKI: 2.47758 Average ROB Occupancy at Mispredict: 79.3388

Branch types
NOT_BRANCH: 40154100 80.3082%
BRANCH_DIRECT_JUMP: 817094 1.63419%
BRANCH_INDIRECT: 303787 0.607574%
BRANCH_CONDITIONAL: 7492103 14.9842%
BRANCH_DIRECT_CALL: 471777 0.943554%
BRANCH_INDIRECT_CALL: 144546 0.289092%
BRANCH_RETURN: 616324 1.23265%
BRANCH_OTHER: 0 0%

