Initialize SIGNATURE TABLE
ST_SET: 1
ST_WAY: 256
ST_TAG_BIT: 16
ST_TAG_MASK: ffff

Initialize PATTERN TABLE
PT_SET: 512
PT_WAY: 4
SIG_DELTA_BIT: 7
C_SIG_BIT: 4
C_DELTA_BIT: 4

Initialize PREFETCH FILTER
FILTER_SET: 1024

*** ChampSim Multicore Out-of-Order Simulator ***

Warmup Instructions: 50000000
Simulation Instructions: 50000000
Number of CPUs: 1
LLC sets: 2048
LLC ways: 16
Off-chip DRAM Size: 4096 MB Channels: 1 Width: 64-bit Data Rate: 3200 MT/s

CPU 0 runs /Users/brandon/Documents/CoursesWi22/CSE240C/Homework1/ChampSim/ipc1_public/spec_gobmk_002.champsimtrace.xz
L1I D-JOLT instruction prefetcher has been constructed!
CPU 0 L1D next line prefetcher
Heartbeat CPU 0 instructions: 10000001 cycles: 3287440 heartbeat IPC: 3.04188 cumulative IPC: 3.04188 (Simulation time: 0 hr 1 min 45 sec) 
Heartbeat CPU 0 instructions: 20000000 cycles: 6618980 heartbeat IPC: 3.00161 cumulative IPC: 3.02161 (Simulation time: 0 hr 3 min 36 sec) 
Heartbeat CPU 0 instructions: 30000000 cycles: 9956864 heartbeat IPC: 2.99591 cumulative IPC: 3.013 (Simulation time: 0 hr 5 min 52 sec) 
Heartbeat CPU 0 instructions: 40000000 cycles: 13266271 heartbeat IPC: 3.02169 cumulative IPC: 3.01517 (Simulation time: 0 hr 7 min 58 sec) 
Heartbeat CPU 0 instructions: 50000003 cycles: 16529770 heartbeat IPC: 3.0642 cumulative IPC: 3.02485 (Simulation time: 0 hr 10 min 14 sec) 

Warmup complete CPU 0 instructions: 50000003 cycles: 16529770 (Simulation time: 0 hr 10 min 14 sec) 

Heartbeat CPU 0 instructions: 60000003 cycles: 23929625 heartbeat IPC: 1.35138 cumulative IPC: 1.35138 (Simulation time: 0 hr 12 min 16 sec) 
Heartbeat CPU 0 instructions: 70000000 cycles: 31266352 heartbeat IPC: 1.36301 cumulative IPC: 1.35717 (Simulation time: 0 hr 13 min 54 sec) 
Heartbeat CPU 0 instructions: 80000000 cycles: 38472080 heartbeat IPC: 1.38778 cumulative IPC: 1.36722 (Simulation time: 0 hr 15 min 19 sec) 
Heartbeat CPU 0 instructions: 90000003 cycles: 45999245 heartbeat IPC: 1.32852 cumulative IPC: 1.35734 (Simulation time: 0 hr 16 min 21 sec) 
Heartbeat CPU 0 instructions: 100000003 cycles: 53772022 heartbeat IPC: 1.28654 cumulative IPC: 1.34256 (Simulation time: 0 hr 17 min 20 sec) 
Finished CPU 0 instructions: 50000000 cycles: 37242252 cumulative IPC: 1.34256 (Simulation time: 0 hr 17 min 20 sec) 

ChampSim completed all CPUs

Region of Interest Statistics

CPU 0 cumulative IPC: 1.34256 instructions: 50000000 cycles: 37242252
L1D TOTAL     ACCESS:   17621175  HIT:   17498041  MISS:     123134
L1D LOAD      ACCESS:    6655889  HIT:    6621628  MISS:      34261
L1D RFO       ACCESS:    4388597  HIT:    4345912  MISS:      42685
L1D PREFETCH  ACCESS:    6576689  HIT:    6530501  MISS:      46188
L1D WRITEBACK ACCESS:          0  HIT:          0  MISS:          0
L1D PREFETCH  REQUESTED:    6658291  ISSUED:    6590968  USEFUL:      17115  USELESS:      29255
L1D AVERAGE MISS LATENCY: 50.5936 cycles
L1I TOTAL     ACCESS:   16031099  HIT:   13759769  MISS:    2271330
L1I LOAD      ACCESS:    8892355  HIT:    8821092  MISS:      71263
L1I RFO       ACCESS:          0  HIT:          0  MISS:          0
L1I PREFETCH  ACCESS:    7138744  HIT:    4938677  MISS:    2200067
L1I WRITEBACK ACCESS:          0  HIT:          0  MISS:          0
L1I PREFETCH  REQUESTED:    7512085  ISSUED:    7198084  USEFUL:    1099039  USELESS:    1100949
L1I AVERAGE MISS LATENCY: 14.5755 cycles
L2C TOTAL     ACCESS:    3474938  HIT:    3437633  MISS:      37305
L2C LOAD      ACCESS:     100520  HIT:      86819  MISS:      13701
L2C RFO       ACCESS:      42550  HIT:      39726  MISS:       2824
L2C PREFETCH  ACCESS:    3257657  HIT:    3237010  MISS:      20647
L2C WRITEBACK ACCESS:      74211  HIT:      74078  MISS:        133
L2C PREFETCH  REQUESTED:    1563854  ISSUED:    1563850  USEFUL:       2418  USELESS:      18693
L2C AVERAGE MISS LATENCY: 126.137 cycles
LLC TOTAL     ACCESS:      95830  HIT:      64216  MISS:      31614
LLC LOAD      ACCESS:      13701  HIT:       5004  MISS:       8697
LLC RFO       ACCESS:       2824  HIT:       1192  MISS:       1632
LLC PREFETCH  ACCESS:      61223  HIT:      40425  MISS:      20798
LLC WRITEBACK ACCESS:      18082  HIT:      17595  MISS:        487
LLC PREFETCH  REQUESTED:          0  ISSUED:          0  USEFUL:       2019  USELESS:      18756
LLC AVERAGE MISS LATENCY: 181.556 cycles
Major fault: 0 Minor fault: 2781
CPU 0 L1D next line prefetcher final stats

DRAM Statistics
 CHANNEL 0
 RQ ROW_BUFFER_HIT:       2546  ROW_BUFFER_MISS:      28581
 DBUS_CONGESTED:      14142
 WQ ROW_BUFFER_HIT:        763  ROW_BUFFER_MISS:      12707  FULL:          0

 AVG_CONGESTED_CYCLE: 4

CPU 0 Branch Prediction Accuracy: 93.9974% MPKI: 10.2447 Average ROB Occupancy at Mispredict: 40.1309

Branch types
NOT_BRANCH: 41466055 82.9321%
BRANCH_DIRECT_JUMP: 464313 0.928626%
BRANCH_INDIRECT: 32 6.4e-05%
BRANCH_CONDITIONAL: 7069452 14.1389%
BRANCH_DIRECT_CALL: 499587 0.999174%
BRANCH_INDIRECT_CALL: 342 0.000684%
BRANCH_RETURN: 499906 0.999812%
BRANCH_OTHER: 0 0%

