Initialize SIGNATURE TABLE
ST_SET: 1
ST_WAY: 256
ST_TAG_BIT: 16
ST_TAG_MASK: ffff

Initialize PATTERN TABLE
PT_SET: 512
PT_WAY: 4
SIG_DELTA_BIT: 7
C_SIG_BIT: 4
C_DELTA_BIT: 4

Initialize PREFETCH FILTER
FILTER_SET: 1024

*** ChampSim Multicore Out-of-Order Simulator ***

Warmup Instructions: 50000000
Simulation Instructions: 50000000
Number of CPUs: 1
LLC sets: 2048
LLC ways: 16
Off-chip DRAM Size: 4096 MB Channels: 1 Width: 64-bit Data Rate: 3200 MT/s

CPU 0 runs /Users/brandon/Documents/CoursesWi22/CSE240C/Homework1/ChampSim/ipc1_public/server_027.champsimtrace.xz
CPU 0 L1I next line prefetcher
CPU 0 L1D next line prefetcher
Heartbeat CPU 0 instructions: 10000001 cycles: 3528629 heartbeat IPC: 2.83396 cumulative IPC: 2.83396 (Simulation time: 0 hr 1 min 51 sec) 
Heartbeat CPU 0 instructions: 20000001 cycles: 7062068 heartbeat IPC: 2.8301 cumulative IPC: 2.83203 (Simulation time: 0 hr 3 min 45 sec) 
Heartbeat CPU 0 instructions: 30000002 cycles: 10589224 heartbeat IPC: 2.83515 cumulative IPC: 2.83307 (Simulation time: 0 hr 5 min 38 sec) 
Heartbeat CPU 0 instructions: 40000000 cycles: 14121505 heartbeat IPC: 2.83103 cumulative IPC: 2.83256 (Simulation time: 0 hr 7 min 27 sec) 
Heartbeat CPU 0 instructions: 50000001 cycles: 17647370 heartbeat IPC: 2.83618 cumulative IPC: 2.83328 (Simulation time: 0 hr 9 min 14 sec) 

Warmup complete CPU 0 instructions: 50000001 cycles: 17647370 (Simulation time: 0 hr 9 min 14 sec) 

Heartbeat CPU 0 instructions: 60000002 cycles: 24560816 heartbeat IPC: 1.44646 cumulative IPC: 1.44646 (Simulation time: 0 hr 11 min 0 sec) 
Heartbeat CPU 0 instructions: 70000003 cycles: 31431965 heartbeat IPC: 1.45536 cumulative IPC: 1.4509 (Simulation time: 0 hr 12 min 48 sec) 
Heartbeat CPU 0 instructions: 80000002 cycles: 38322709 heartbeat IPC: 1.45122 cumulative IPC: 1.451 (Simulation time: 0 hr 14 min 26 sec) 
Heartbeat CPU 0 instructions: 90000001 cycles: 45285770 heartbeat IPC: 1.43615 cumulative IPC: 1.44726 (Simulation time: 0 hr 15 min 59 sec) 
Heartbeat CPU 0 instructions: 100000002 cycles: 52132826 heartbeat IPC: 1.46048 cumulative IPC: 1.44989 (Simulation time: 0 hr 17 min 20 sec) 
Finished CPU 0 instructions: 50000001 cycles: 34485456 cumulative IPC: 1.44989 (Simulation time: 0 hr 17 min 20 sec) 

ChampSim completed all CPUs

Region of Interest Statistics

CPU 0 cumulative IPC: 1.44989 instructions: 50000001 cycles: 34485456
L1D TOTAL     ACCESS:   19885656  HIT:   18284174  MISS:    1601482
L1D LOAD      ACCESS:    6942667  HIT:    6249571  MISS:     693096
L1D RFO       ACCESS:    6290012  HIT:    6004686  MISS:     285326
L1D PREFETCH  ACCESS:    6652977  HIT:    6029917  MISS:     623060
L1D WRITEBACK ACCESS:          0  HIT:          0  MISS:          0
L1D PREFETCH  REQUESTED:    6988766  ISSUED:    6861425  USEFUL:     148212  USELESS:     474861
L1D AVERAGE MISS LATENCY: 24.8028 cycles
L1I TOTAL     ACCESS:   15002501  HIT:   11022194  MISS:    3980307
L1I LOAD      ACCESS:    9481210  HIT:    9377947  MISS:     103263
L1I RFO       ACCESS:          0  HIT:          0  MISS:          0
L1I PREFETCH  ACCESS:    5521291  HIT:    1644247  MISS:    3877044
L1I WRITEBACK ACCESS:          0  HIT:          0  MISS:          0
L1I PREFETCH  REQUESTED:    5799783  ISSUED:    5796743  USEFUL:    2774330  USELESS:    1102656
L1I AVERAGE MISS LATENCY: 19.1982 cycles
L2C TOTAL     ACCESS:    7436711  HIT:    6457435  MISS:     979276
L2C LOAD      ACCESS:     692367  HIT:     535848  MISS:     156519
L2C RFO       ACCESS:     283518  HIT:     188997  MISS:      94521
L2C PREFETCH  ACCESS:    5901710  HIT:    5177927  MISS:     723783
L2C WRITEBACK ACCESS:     559116  HIT:     554663  MISS:       4453
L2C PREFETCH  REQUESTED:    6946352  ISSUED:    6928095  USEFUL:      14274  USELESS:     709159
L2C AVERAGE MISS LATENCY: 38.2411 cycles
LLC TOTAL     ACCESS:    2797353  HIT:    2762097  MISS:      35256
LLC LOAD      ACCESS:     156290  HIT:     152642  MISS:       3648
LLC RFO       ACCESS:      94494  HIT:      80591  MISS:      13903
LLC PREFETCH  ACCESS:    2377613  HIT:    2360098  MISS:      17515
LLC WRITEBACK ACCESS:     168956  HIT:     168766  MISS:        190
LLC PREFETCH  REQUESTED:          0  ISSUED:          0  USEFUL:       1355  USELESS:      15104
LLC AVERAGE MISS LATENCY: 183.709 cycles
Major fault: 0 Minor fault: 2478
I-Shadow cache 408 bytes
Touched + WorthPF tables 24576 bytes 
MMA filter 174 bytes 
FNL filter 272 bytes 
TOTAL PREFETCHER STORAGE SIZE: 98134 bytes
CPU 0 L1I next line prefetcher final stats
CPU 0 L1D next line prefetcher final stats

DRAM Statistics
 CHANNEL 0
 RQ ROW_BUFFER_HIT:      11366  ROW_BUFFER_MISS:      23697
 DBUS_CONGESTED:      24051
 WQ ROW_BUFFER_HIT:       1676  ROW_BUFFER_MISS:      14931  FULL:          0

 AVG_CONGESTED_CYCLE: 6

CPU 0 Branch Prediction Accuracy: 99.8082% MPKI: 0.35064 Average ROB Occupancy at Mispredict: 193.856

Branch types
NOT_BRANCH: 40857507 81.715%
BRANCH_DIRECT_JUMP: 526635 1.05327%
BRANCH_INDIRECT: 205902 0.411804%
BRANCH_CONDITIONAL: 6184049 12.3681%
BRANCH_DIRECT_CALL: 938468 1.87694%
BRANCH_INDIRECT_CALL: 174486 0.348972%
BRANCH_RETURN: 1112959 2.22592%
BRANCH_OTHER: 0 0%

