Initialize SIGNATURE TABLE
ST_SET: 1
ST_WAY: 256
ST_TAG_BIT: 16
ST_TAG_MASK: ffff

Initialize PATTERN TABLE
PT_SET: 512
PT_WAY: 4
SIG_DELTA_BIT: 7
C_SIG_BIT: 4
C_DELTA_BIT: 4

Initialize PREFETCH FILTER
FILTER_SET: 1024

*** ChampSim Multicore Out-of-Order Simulator ***

Warmup Instructions: 50000000
Simulation Instructions: 50000000
Number of CPUs: 1
LLC sets: 2048
LLC ways: 16
Off-chip DRAM Size: 4096 MB Channels: 1 Width: 64-bit Data Rate: 3200 MT/s

CPU 0 runs /Users/brandon/Documents/CoursesWi22/CSE240C/Homework1/ChampSim/ipc1_public/server_018.champsimtrace.xz
CPU 0 L1I next line prefetcher
CPU 0 L1D next line prefetcher
Heartbeat CPU 0 instructions: 10000003 cycles: 3615967 heartbeat IPC: 2.76551 cumulative IPC: 2.76551 (Simulation time: 0 hr 1 min 42 sec) 
Heartbeat CPU 0 instructions: 20000001 cycles: 7237018 heartbeat IPC: 2.76163 cumulative IPC: 2.76357 (Simulation time: 0 hr 3 min 40 sec) 
Heartbeat CPU 0 instructions: 30000003 cycles: 10712265 heartbeat IPC: 2.87749 cumulative IPC: 2.80053 (Simulation time: 0 hr 5 min 38 sec) 
Heartbeat CPU 0 instructions: 40000000 cycles: 14223981 heartbeat IPC: 2.84761 cumulative IPC: 2.81215 (Simulation time: 0 hr 7 min 39 sec) 
Heartbeat CPU 0 instructions: 50000003 cycles: 17841113 heartbeat IPC: 2.76462 cumulative IPC: 2.80252 (Simulation time: 0 hr 9 min 47 sec) 

Warmup complete CPU 0 instructions: 50000003 cycles: 17841113 (Simulation time: 0 hr 9 min 47 sec) 

Heartbeat CPU 0 instructions: 60000000 cycles: 35341538 heartbeat IPC: 0.571415 cumulative IPC: 0.571415 (Simulation time: 0 hr 12 min 41 sec) 
Heartbeat CPU 0 instructions: 70000001 cycles: 52880889 heartbeat IPC: 0.570147 cumulative IPC: 0.57078 (Simulation time: 0 hr 15 min 19 sec) 
Heartbeat CPU 0 instructions: 80000000 cycles: 70316298 heartbeat IPC: 0.573545 cumulative IPC: 0.571699 (Simulation time: 0 hr 17 min 29 sec) 
Heartbeat CPU 0 instructions: 90000002 cycles: 87679460 heartbeat IPC: 0.575932 cumulative IPC: 0.572751 (Simulation time: 0 hr 18 min 33 sec) 
Heartbeat CPU 0 instructions: 100000001 cycles: 105106367 heartbeat IPC: 0.573825 cumulative IPC: 0.572966 (Simulation time: 0 hr 19 min 13 sec) 
Finished CPU 0 instructions: 50000002 cycles: 87265256 cumulative IPC: 0.572966 (Simulation time: 0 hr 19 min 13 sec) 

ChampSim completed all CPUs

Region of Interest Statistics

CPU 0 cumulative IPC: 0.572966 instructions: 50000002 cycles: 87265256
L1D TOTAL     ACCESS:   18625183  HIT:   16407528  MISS:    2217655
L1D LOAD      ACCESS:    7045289  HIT:    6320787  MISS:     724502
L1D RFO       ACCESS:    5808894  HIT:    4856664  MISS:     952230
L1D PREFETCH  ACCESS:    5771000  HIT:    5230077  MISS:     540923
L1D WRITEBACK ACCESS:          0  HIT:          0  MISS:          0
L1D PREFETCH  REQUESTED:    7086478  ISSUED:    6883103  USEFUL:     201205  USELESS:     339807
L1D AVERAGE MISS LATENCY: 175.968 cycles
L1I TOTAL     ACCESS:   15009864  HIT:   12030990  MISS:    2978874
L1I LOAD      ACCESS:   10107774  HIT:   10076891  MISS:      30883
L1I RFO       ACCESS:          0  HIT:          0  MISS:          0
L1I PREFETCH  ACCESS:    4902090  HIT:    1954099  MISS:    2947991
L1I WRITEBACK ACCESS:          0  HIT:          0  MISS:          0
L1I PREFETCH  REQUESTED:    5098312  ISSUED:    5098312  USEFUL:    2544999  USELESS:     402937
L1I AVERAGE MISS LATENCY: 17.7319 cycles
L2C TOTAL     ACCESS:    7462040  HIT:    5598134  MISS:    1863906
L2C LOAD      ACCESS:     512553  HIT:     248485  MISS:     264068
L2C RFO       ACCESS:     951759  HIT:      21485  MISS:     930274
L2C PREFETCH  ACCESS:    4827703  HIT:    4161976  MISS:     665727
L2C WRITEBACK ACCESS:    1170025  HIT:    1166188  MISS:       3837
L2C PREFETCH  REQUESTED:    4925896  ISSUED:    4918937  USEFUL:      23425  USELESS:     643261
L2C AVERAGE MISS LATENCY: 214.182 cycles
LLC TOTAL     ACCESS:    4212504  HIT:    2743654  MISS:    1468850
LLC LOAD      ACCESS:     263964  HIT:     164176  MISS:      99788
LLC RFO       ACCESS:     930247  HIT:     133812  MISS:     796435
LLC PREFETCH  ACCESS:    1916626  HIT:    1346149  MISS:     570477
LLC WRITEBACK ACCESS:    1101667  HIT:    1099517  MISS:       2150
LLC PREFETCH  REQUESTED:          0  ISSUED:          0  USEFUL:      32986  USELESS:     537623
LLC AVERAGE MISS LATENCY: 280.3 cycles
Major fault: 0 Minor fault: 22443
I-Shadow cache 408 bytes
Touched + WorthPF tables 24576 bytes 
MMA filter 174 bytes 
FNL filter 272 bytes 
TOTAL PREFETCHER STORAGE SIZE: 98134 bytes
CPU 0 L1I next line prefetcher final stats
CPU 0 L1D next line prefetcher final stats

DRAM Statistics
 CHANNEL 0
 RQ ROW_BUFFER_HIT:     415199  ROW_BUFFER_MISS:    1051149
 DBUS_CONGESTED:    1472121
 WQ ROW_BUFFER_HIT:     252787  ROW_BUFFER_MISS:     648452  FULL:          0

 AVG_CONGESTED_CYCLE: 6

CPU 0 Branch Prediction Accuracy: 99.7114% MPKI: 0.47678 Average ROB Occupancy at Mispredict: 211.547

Branch types
NOT_BRANCH: 41740997 83.482%
BRANCH_DIRECT_JUMP: 458652 0.917304%
BRANCH_INDIRECT: 48282 0.096564%
BRANCH_CONDITIONAL: 5930880 11.8618%
BRANCH_DIRECT_CALL: 744230 1.48846%
BRANCH_INDIRECT_CALL: 166336 0.332672%
BRANCH_RETURN: 910589 1.82118%
BRANCH_OTHER: 0 0%

