Initialize SIGNATURE TABLE
ST_SET: 1
ST_WAY: 256
ST_TAG_BIT: 16
ST_TAG_MASK: ffff

Initialize PATTERN TABLE
PT_SET: 512
PT_WAY: 4
SIG_DELTA_BIT: 7
C_SIG_BIT: 4
C_DELTA_BIT: 4

Initialize PREFETCH FILTER
FILTER_SET: 1024

*** ChampSim Multicore Out-of-Order Simulator ***

Warmup Instructions: 50000000
Simulation Instructions: 50000000
Number of CPUs: 1
LLC sets: 2048
LLC ways: 16
Off-chip DRAM Size: 4096 MB Channels: 1 Width: 64-bit Data Rate: 3200 MT/s

CPU 0 runs /Users/brandon/Documents/CoursesWi22/CSE240C/Homework1/ChampSim/ipc1_public/server_015.champsimtrace.xz
CPU 0 L1I next line prefetcher
CPU 0 L1D next line prefetcher
Heartbeat CPU 0 instructions: 10000002 cycles: 3519399 heartbeat IPC: 2.84139 cumulative IPC: 2.84139 (Simulation time: 0 hr 1 min 39 sec) 
Heartbeat CPU 0 instructions: 20000001 cycles: 7106945 heartbeat IPC: 2.78742 cumulative IPC: 2.81415 (Simulation time: 0 hr 3 min 33 sec) 
Heartbeat CPU 0 instructions: 30000001 cycles: 10645871 heartbeat IPC: 2.82572 cumulative IPC: 2.81799 (Simulation time: 0 hr 5 min 33 sec) 
Heartbeat CPU 0 instructions: 40000002 cycles: 14193912 heartbeat IPC: 2.81846 cumulative IPC: 2.81811 (Simulation time: 0 hr 7 min 36 sec) 
Heartbeat CPU 0 instructions: 50000002 cycles: 17742172 heartbeat IPC: 2.81828 cumulative IPC: 2.81814 (Simulation time: 0 hr 9 min 39 sec) 

Warmup complete CPU 0 instructions: 50000002 cycles: 17742172 (Simulation time: 0 hr 9 min 39 sec) 

Heartbeat CPU 0 instructions: 60000002 cycles: 24041457 heartbeat IPC: 1.58748 cumulative IPC: 1.58748 (Simulation time: 0 hr 11 min 44 sec) 
Heartbeat CPU 0 instructions: 70000003 cycles: 30351689 heartbeat IPC: 1.58473 cumulative IPC: 1.5861 (Simulation time: 0 hr 13 min 47 sec) 
Heartbeat CPU 0 instructions: 80000000 cycles: 36661752 heartbeat IPC: 1.58477 cumulative IPC: 1.58566 (Simulation time: 0 hr 15 min 45 sec) 
Heartbeat CPU 0 instructions: 90000000 cycles: 42975224 heartbeat IPC: 1.58391 cumulative IPC: 1.58522 (Simulation time: 0 hr 17 min 21 sec) 
Heartbeat CPU 0 instructions: 100000002 cycles: 49285879 heartbeat IPC: 1.58462 cumulative IPC: 1.5851 (Simulation time: 0 hr 18 min 16 sec) 
Finished CPU 0 instructions: 50000000 cycles: 31543707 cumulative IPC: 1.5851 (Simulation time: 0 hr 18 min 16 sec) 

ChampSim completed all CPUs

Region of Interest Statistics

CPU 0 cumulative IPC: 1.5851 instructions: 50000000 cycles: 31543707
L1D TOTAL     ACCESS:   21844683  HIT:   21827916  MISS:      16767
L1D LOAD      ACCESS:    6699846  HIT:    6699317  MISS:        529
L1D RFO       ACCESS:    8561443  HIT:    8561347  MISS:         96
L1D PREFETCH  ACCESS:    6583394  HIT:    6567252  MISS:      16142
L1D WRITEBACK ACCESS:          0  HIT:          0  MISS:          0
L1D PREFETCH  REQUESTED:    6699906  ISSUED:    6587760  USEFUL:         84  USELESS:      16055
L1D AVERAGE MISS LATENCY: 16.7526 cycles
L1I TOTAL     ACCESS:   15788883  HIT:   13323147  MISS:    2465736
L1I LOAD      ACCESS:    9766409  HIT:    9723038  MISS:      43371
L1I RFO       ACCESS:          0  HIT:          0  MISS:          0
L1I PREFETCH  ACCESS:    6022474  HIT:    3600109  MISS:    2422365
L1I WRITEBACK ACCESS:          0  HIT:          0  MISS:          0
L1I PREFETCH  REQUESTED:    6226286  ISSUED:    6226286  USEFUL:    2052197  USELESS:     370146
L1I AVERAGE MISS LATENCY: 14.2591 cycles
L2C TOTAL     ACCESS:    3167307  HIT:    3166978  MISS:        329
L2C LOAD      ACCESS:      19938  HIT:      19869  MISS:         69
L2C RFO       ACCESS:         95  HIT:         92  MISS:          3
L2C PREFETCH  ACCESS:    3146925  HIT:    3146668  MISS:        257
L2C WRITEBACK ACCESS:        349  HIT:        349  MISS:          0
L2C PREFETCH  REQUESTED:    1648863  ISSUED:    1648854  USEFUL:        119  USELESS:        144
L2C AVERAGE MISS LATENCY: 193.003 cycles
LLC TOTAL     ACCESS:     294418  HIT:     293621  MISS:        797
LLC LOAD      ACCESS:         69  HIT:         53  MISS:         16
LLC RFO       ACCESS:          3  HIT:          1  MISS:          2
LLC PREFETCH  ACCESS:     294248  HIT:     293469  MISS:        779
LLC WRITEBACK ACCESS:         98  HIT:         98  MISS:          0
LLC PREFETCH  REQUESTED:          0  ISSUED:          0  USEFUL:          7  USELESS:        130
LLC AVERAGE MISS LATENCY: 574.371 cycles
Major fault: 0 Minor fault: 1888
I-Shadow cache 408 bytes
Touched + WorthPF tables 24576 bytes 
MMA filter 174 bytes 
FNL filter 272 bytes 
TOTAL PREFETCHER STORAGE SIZE: 98134 bytes
CPU 0 L1I next line prefetcher final stats
CPU 0 L1D next line prefetcher final stats

DRAM Statistics
 CHANNEL 0
 RQ ROW_BUFFER_HIT:        182  ROW_BUFFER_MISS:        615
 DBUS_CONGESTED:        620
 WQ ROW_BUFFER_HIT:         92  ROW_BUFFER_MISS:        515  FULL:          0

 AVG_CONGESTED_CYCLE: 6

CPU 0 Branch Prediction Accuracy: 99.9085% MPKI: 0.15428 Average ROB Occupancy at Mispredict: 286.983

Branch types
NOT_BRANCH: 41573151 83.1463%
BRANCH_DIRECT_JUMP: 436254 0.872508%
BRANCH_INDIRECT: 0 0%
BRANCH_CONDITIONAL: 5395897 10.7918%
BRANCH_DIRECT_CALL: 1173392 2.34678%
BRANCH_INDIRECT_CALL: 123912 0.247824%
BRANCH_RETURN: 1297311 2.59462%
BRANCH_OTHER: 0 0%

