Initialize SIGNATURE TABLE
ST_SET: 1
ST_WAY: 256
ST_TAG_BIT: 16
ST_TAG_MASK: ffff

Initialize PATTERN TABLE
PT_SET: 512
PT_WAY: 4
SIG_DELTA_BIT: 7
C_SIG_BIT: 4
C_DELTA_BIT: 4

Initialize PREFETCH FILTER
FILTER_SET: 1024

*** ChampSim Multicore Out-of-Order Simulator ***

Warmup Instructions: 50000000
Simulation Instructions: 50000000
Number of CPUs: 1
LLC sets: 2048
LLC ways: 16
Off-chip DRAM Size: 4096 MB Channels: 1 Width: 64-bit Data Rate: 3200 MT/s

CPU 0 runs /Users/brandon/Documents/CoursesWi22/CSE240C/Homework1/ChampSim/ipc1_public/server_031.champsimtrace.xz
CPU 0 L1I next line prefetcher
CPU 0 L1D next line prefetcher
Heartbeat CPU 0 instructions: 10000003 cycles: 3522037 heartbeat IPC: 2.83927 cumulative IPC: 2.83927 (Simulation time: 0 hr 1 min 53 sec) 
Heartbeat CPU 0 instructions: 20000002 cycles: 7044203 heartbeat IPC: 2.83916 cumulative IPC: 2.83921 (Simulation time: 0 hr 3 min 48 sec) 
Heartbeat CPU 0 instructions: 30000002 cycles: 10567157 heartbeat IPC: 2.83853 cumulative IPC: 2.83899 (Simulation time: 0 hr 5 min 43 sec) 
Heartbeat CPU 0 instructions: 40000003 cycles: 14085951 heartbeat IPC: 2.84188 cumulative IPC: 2.83971 (Simulation time: 0 hr 7 min 34 sec) 
Heartbeat CPU 0 instructions: 50000001 cycles: 17607070 heartbeat IPC: 2.84001 cumulative IPC: 2.83977 (Simulation time: 0 hr 9 min 23 sec) 

Warmup complete CPU 0 instructions: 50000001 cycles: 17607070 (Simulation time: 0 hr 9 min 23 sec) 

Heartbeat CPU 0 instructions: 60000001 cycles: 25180892 heartbeat IPC: 1.32034 cumulative IPC: 1.32034 (Simulation time: 0 hr 11 min 12 sec) 
Heartbeat CPU 0 instructions: 70000002 cycles: 32825262 heartbeat IPC: 1.30815 cumulative IPC: 1.31422 (Simulation time: 0 hr 13 min 2 sec) 
*** Reached end of trace for Core: 0 Repeating trace: /Users/brandon/Documents/CoursesWi22/CSE240C/Homework1/ChampSim/ipc1_public/server_031.champsimtrace.xz
Heartbeat CPU 0 instructions: 80000000 cycles: 40316539 heartbeat IPC: 1.33489 cumulative IPC: 1.32103 (Simulation time: 0 hr 14 min 44 sec) 
Heartbeat CPU 0 instructions: 90000001 cycles: 47869274 heartbeat IPC: 1.32402 cumulative IPC: 1.32178 (Simulation time: 0 hr 16 min 20 sec) 
Heartbeat CPU 0 instructions: 100000000 cycles: 55373721 heartbeat IPC: 1.33254 cumulative IPC: 1.32392 (Simulation time: 0 hr 17 min 29 sec) 
Finished CPU 0 instructions: 50000000 cycles: 37766653 cumulative IPC: 1.32392 (Simulation time: 0 hr 17 min 29 sec) 

ChampSim completed all CPUs

Region of Interest Statistics

CPU 0 cumulative IPC: 1.32392 instructions: 50000000 cycles: 37766653
L1D TOTAL     ACCESS:   19487875  HIT:   17583775  MISS:    1904100
L1D LOAD      ACCESS:    6759137  HIT:    5885315  MISS:     873822
L1D RFO       ACCESS:    6313482  HIT:    6022100  MISS:     291382
L1D PREFETCH  ACCESS:    6415256  HIT:    5676360  MISS:     738896
L1D WRITEBACK ACCESS:          0  HIT:          0  MISS:          0
L1D PREFETCH  REQUESTED:    6824731  ISSUED:    6708864  USEFUL:     173244  USELESS:     565657
L1D AVERAGE MISS LATENCY: 24.2444 cycles
L1I TOTAL     ACCESS:   15454736  HIT:   11322113  MISS:    4132623
L1I LOAD      ACCESS:    9714845  HIT:    9630924  MISS:      83921
L1I RFO       ACCESS:          0  HIT:          0  MISS:          0
L1I PREFETCH  ACCESS:    5739891  HIT:    1691189  MISS:    4048702
L1I WRITEBACK ACCESS:          0  HIT:          0  MISS:          0
L1I PREFETCH  REQUESTED:    6003438  ISSUED:    6003389  USEFUL:    3033514  USELESS:    1015189
L1I AVERAGE MISS LATENCY: 18.2684 cycles
L2C TOTAL     ACCESS:    8352039  HIT:    7502007  MISS:     850032
L2C LOAD      ACCESS:     851202  HIT:     687592  MISS:     163610
L2C RFO       ACCESS:     289451  HIT:     216321  MISS:      73130
L2C PREFETCH  ACCESS:    6594603  HIT:    5987606  MISS:     606997
L2C WRITEBACK ACCESS:     616783  HIT:     610488  MISS:       6295
L2C PREFETCH  REQUESTED:    8731822  ISSUED:    8704775  USEFUL:      11055  USELESS:     595196
L2C AVERAGE MISS LATENCY: 41.9862 cycles
LLC TOTAL     ACCESS:    2906982  HIT:    2823866  MISS:      83116
LLC LOAD      ACCESS:     163477  HIT:     144737  MISS:      18740
LLC RFO       ACCESS:      73123  HIT:      68950  MISS:       4173
LLC PREFETCH  ACCESS:    2531704  HIT:    2472062  MISS:      59642
LLC WRITEBACK ACCESS:     138678  HIT:     138117  MISS:        561
LLC PREFETCH  REQUESTED:          0  ISSUED:          0  USEFUL:       2798  USELESS:      56486
LLC AVERAGE MISS LATENCY: 159.902 cycles
Major fault: 0 Minor fault: 6042
I-Shadow cache 408 bytes
Touched + WorthPF tables 24576 bytes 
MMA filter 174 bytes 
FNL filter 272 bytes 
TOTAL PREFETCHER STORAGE SIZE: 98134 bytes
CPU 0 L1I next line prefetcher final stats
CPU 0 L1D next line prefetcher final stats

DRAM Statistics
 CHANNEL 0
 RQ ROW_BUFFER_HIT:      22730  ROW_BUFFER_MISS:      59812
 DBUS_CONGESTED:      36738
 WQ ROW_BUFFER_HIT:        766  ROW_BUFFER_MISS:       5080  FULL:          0

 AVG_CONGESTED_CYCLE: 5

CPU 0 Branch Prediction Accuracy: 99.6894% MPKI: 0.58048 Average ROB Occupancy at Mispredict: 144.82

Branch types
NOT_BRANCH: 40655645 81.3113%
BRANCH_DIRECT_JUMP: 546483 1.09297%
BRANCH_INDIRECT: 172433 0.344866%
BRANCH_CONDITIONAL: 6207589 12.4152%
BRANCH_DIRECT_CALL: 1018498 2.037%
BRANCH_INDIRECT_CALL: 190373 0.380746%
BRANCH_RETURN: 1208855 2.41771%
BRANCH_OTHER: 0 0%

