Initialize SIGNATURE TABLE
ST_SET: 1
ST_WAY: 256
ST_TAG_BIT: 16
ST_TAG_MASK: ffff

Initialize PATTERN TABLE
PT_SET: 512
PT_WAY: 4
SIG_DELTA_BIT: 7
C_SIG_BIT: 4
C_DELTA_BIT: 4

Initialize PREFETCH FILTER
FILTER_SET: 1024

*** ChampSim Multicore Out-of-Order Simulator ***

Warmup Instructions: 50000000
Simulation Instructions: 50000000
Number of CPUs: 1
LLC sets: 2048
LLC ways: 16
Off-chip DRAM Size: 4096 MB Channels: 1 Width: 64-bit Data Rate: 3200 MT/s

CPU 0 runs /Users/brandon/Documents/CoursesWi22/CSE240C/Homework1/ChampSim/ipc1_public/server_014.champsimtrace.xz
CPU 0 L1I next line prefetcher
CPU 0 L1D next line prefetcher
Heartbeat CPU 0 instructions: 10000003 cycles: 3519528 heartbeat IPC: 2.84129 cumulative IPC: 2.84129 (Simulation time: 0 hr 1 min 39 sec) 
Heartbeat CPU 0 instructions: 20000000 cycles: 7106270 heartbeat IPC: 2.78804 cumulative IPC: 2.81442 (Simulation time: 0 hr 3 min 33 sec) 
Heartbeat CPU 0 instructions: 30000001 cycles: 10647771 heartbeat IPC: 2.82366 cumulative IPC: 2.81749 (Simulation time: 0 hr 5 min 35 sec) 
Heartbeat CPU 0 instructions: 40000003 cycles: 14195993 heartbeat IPC: 2.81831 cumulative IPC: 2.8177 (Simulation time: 0 hr 7 min 37 sec) 
Heartbeat CPU 0 instructions: 50000000 cycles: 17744667 heartbeat IPC: 2.81795 cumulative IPC: 2.81775 (Simulation time: 0 hr 9 min 40 sec) 

Warmup complete CPU 0 instructions: 50000001 cycles: 17744668 (Simulation time: 0 hr 9 min 40 sec) 

Heartbeat CPU 0 instructions: 60000000 cycles: 24034279 heartbeat IPC: 1.58992 cumulative IPC: 1.58992 (Simulation time: 0 hr 11 min 45 sec) 
Heartbeat CPU 0 instructions: 70000003 cycles: 30327097 heartbeat IPC: 1.58911 cumulative IPC: 1.58952 (Simulation time: 0 hr 13 min 48 sec) 
*** Reached end of trace for Core: 0 Repeating trace: /Users/brandon/Documents/CoursesWi22/CSE240C/Homework1/ChampSim/ipc1_public/server_014.champsimtrace.xz
Heartbeat CPU 0 instructions: 80000001 cycles: 36907232 heartbeat IPC: 1.51973 cumulative IPC: 1.56555 (Simulation time: 0 hr 15 min 42 sec) 
Heartbeat CPU 0 instructions: 90000003 cycles: 44465650 heartbeat IPC: 1.32303 cumulative IPC: 1.49695 (Simulation time: 0 hr 17 min 19 sec) 
Heartbeat CPU 0 instructions: 100000001 cycles: 50965557 heartbeat IPC: 1.53848 cumulative IPC: 1.50508 (Simulation time: 0 hr 18 min 14 sec) 
Finished CPU 0 instructions: 50000000 cycles: 33220889 cumulative IPC: 1.50508 (Simulation time: 0 hr 18 min 14 sec) 

ChampSim completed all CPUs

Region of Interest Statistics

CPU 0 cumulative IPC: 1.50508 instructions: 50000000 cycles: 33220889
L1D TOTAL     ACCESS:   21642651  HIT:   21571787  MISS:      70864
L1D LOAD      ACCESS:    6681597  HIT:    6654676  MISS:      26921
L1D RFO       ACCESS:    8412869  HIT:    8380799  MISS:      32070
L1D PREFETCH  ACCESS:    6548185  HIT:    6536312  MISS:      11873
L1D WRITEBACK ACCESS:          0  HIT:          0  MISS:          0
L1D PREFETCH  REQUESTED:    6686069  ISSUED:    6575903  USEFUL:       3317  USELESS:       8556
L1D AVERAGE MISS LATENCY: 221.45 cycles
L1I TOTAL     ACCESS:   15680691  HIT:   13162367  MISS:    2518324
L1I LOAD      ACCESS:    9736862  HIT:    9683700  MISS:      53162
L1I RFO       ACCESS:          0  HIT:          0  MISS:          0
L1I PREFETCH  ACCESS:    5943829  HIT:    3478667  MISS:    2465162
L1I WRITEBACK ACCESS:          0  HIT:          0  MISS:          0
L1I PREFETCH  REQUESTED:    6136657  ISSUED:    6136637  USEFUL:    2038090  USELESS:     427053
L1I AVERAGE MISS LATENCY: 14.9721 cycles
L2C TOTAL     ACCESS:    3420412  HIT:    3348955  MISS:      71457
L2C LOAD      ACCESS:      54162  HIT:      33610  MISS:      20552
L2C RFO       ACCESS:      32019  HIT:       1058  MISS:      30961
L2C PREFETCH  ACCESS:    3295865  HIT:    3275939  MISS:      19926
L2C WRITEBACK ACCESS:      38366  HIT:      38348  MISS:         18
L2C PREFETCH  REQUESTED:    2232125  ISSUED:    2232058  USEFUL:       1603  USELESS:      18392
L2C AVERAGE MISS LATENCY: 251.342 cycles
LLC TOTAL     ACCESS:     587549  HIT:     520773  MISS:      66776
LLC LOAD      ACCESS:      19397  HIT:       5496  MISS:      13901
LLC RFO       ACCESS:      30961  HIT:       5018  MISS:      25943
LLC PREFETCH  ACCESS:     502330  HIT:     475514  MISS:      26816
LLC WRITEBACK ACCESS:      34861  HIT:      34745  MISS:        116
LLC PREFETCH  REQUESTED:          0  ISSUED:          0  USEFUL:       4354  USELESS:      23175
LLC AVERAGE MISS LATENCY: 301.524 cycles
Major fault: 0 Minor fault: 1912
I-Shadow cache 408 bytes
Touched + WorthPF tables 24576 bytes 
MMA filter 174 bytes 
FNL filter 272 bytes 
TOTAL PREFETCHER STORAGE SIZE: 98134 bytes
CPU 0 L1I next line prefetcher final stats
CPU 0 L1D next line prefetcher final stats

DRAM Statistics
 CHANNEL 0
 RQ ROW_BUFFER_HIT:      29845  ROW_BUFFER_MISS:      36809
 DBUS_CONGESTED:      67507
 WQ ROW_BUFFER_HIT:       8540  ROW_BUFFER_MISS:      23725  FULL:          0

 AVG_CONGESTED_CYCLE: 6

CPU 0 Branch Prediction Accuracy: 99.7719% MPKI: 0.38824 Average ROB Occupancy at Mispredict: 152.175

Branch types
NOT_BRANCH: 41489011 82.978%
BRANCH_DIRECT_JUMP: 449417 0.898834%
BRANCH_INDIRECT: 2330 0.00466%
BRANCH_CONDITIONAL: 5470016 10.94%
BRANCH_DIRECT_CALL: 1172187 2.34437%
BRANCH_INDIRECT_CALL: 122383 0.244766%
BRANCH_RETURN: 1294554 2.58911%
BRANCH_OTHER: 0 0%

