Initialize SIGNATURE TABLE
ST_SET: 1
ST_WAY: 256
ST_TAG_BIT: 16
ST_TAG_MASK: ffff

Initialize PATTERN TABLE
PT_SET: 512
PT_WAY: 4
SIG_DELTA_BIT: 7
C_SIG_BIT: 4
C_DELTA_BIT: 4

Initialize PREFETCH FILTER
FILTER_SET: 1024

*** ChampSim Multicore Out-of-Order Simulator ***

Warmup Instructions: 50000000
Simulation Instructions: 50000000
Number of CPUs: 1
LLC sets: 2048
LLC ways: 16
Off-chip DRAM Size: 4096 MB Channels: 1 Width: 64-bit Data Rate: 3200 MT/s

CPU 0 runs /Users/brandon/Documents/CoursesWi22/CSE240C/Homework1/ChampSim/ipc1_public/client_004.champsimtrace.xz
CPU 0 L1I next line prefetcher
CPU 0 L1D next line prefetcher
Heartbeat CPU 0 instructions: 10000000 cycles: 3592141 heartbeat IPC: 2.78386 cumulative IPC: 2.78386 (Simulation time: 0 hr 2 min 43 sec) 
Heartbeat CPU 0 instructions: 20000003 cycles: 7056599 heartbeat IPC: 2.88646 cumulative IPC: 2.83423 (Simulation time: 0 hr 5 min 20 sec) 
Heartbeat CPU 0 instructions: 30000000 cycles: 10647055 heartbeat IPC: 2.78516 cumulative IPC: 2.81768 (Simulation time: 0 hr 8 min 2 sec) 
Heartbeat CPU 0 instructions: 40000003 cycles: 14327574 heartbeat IPC: 2.71701 cumulative IPC: 2.79182 (Simulation time: 0 hr 9 min 56 sec) 
Heartbeat CPU 0 instructions: 50000001 cycles: 17845333 heartbeat IPC: 2.84272 cumulative IPC: 2.80185 (Simulation time: 0 hr 11 min 37 sec) 

Warmup complete CPU 0 instructions: 50000001 cycles: 17845333 (Simulation time: 0 hr 11 min 37 sec) 

Heartbeat CPU 0 instructions: 60000002 cycles: 25537610 heartbeat IPC: 1.30001 cumulative IPC: 1.30001 (Simulation time: 0 hr 12 min 55 sec) 
Heartbeat CPU 0 instructions: 70000001 cycles: 33340722 heartbeat IPC: 1.28154 cumulative IPC: 1.29071 (Simulation time: 0 hr 14 min 20 sec) 
Heartbeat CPU 0 instructions: 80000002 cycles: 41910522 heartbeat IPC: 1.16689 cumulative IPC: 1.24661 (Simulation time: 0 hr 15 min 46 sec) 
Heartbeat CPU 0 instructions: 90000000 cycles: 49949143 heartbeat IPC: 1.24399 cumulative IPC: 1.24596 (Simulation time: 0 hr 17 min 15 sec) 
Heartbeat CPU 0 instructions: 100000002 cycles: 57731819 heartbeat IPC: 1.28491 cumulative IPC: 1.25356 (Simulation time: 0 hr 18 min 44 sec) 
Finished CPU 0 instructions: 50000001 cycles: 39886486 cumulative IPC: 1.25356 (Simulation time: 0 hr 18 min 44 sec) 

ChampSim completed all CPUs

Region of Interest Statistics

CPU 0 cumulative IPC: 1.25356 instructions: 50000001 cycles: 39886486
L1D TOTAL     ACCESS:   21947028  HIT:   21058059  MISS:     888969
L1D LOAD      ACCESS:    8714811  HIT:    8318853  MISS:     395958
L1D RFO       ACCESS:    4810098  HIT:    4688696  MISS:     121402
L1D PREFETCH  ACCESS:    8422119  HIT:    8050510  MISS:     371609
L1D WRITEBACK ACCESS:          0  HIT:          0  MISS:          0
L1D PREFETCH  REQUESTED:    8754115  ISSUED:    8594527  USEFUL:     133099  USELESS:     238518
L1D AVERAGE MISS LATENCY: 29.9194 cycles
L1I TOTAL     ACCESS:   10837500  HIT:   10004950  MISS:     832550
L1I LOAD      ACCESS:    9388881  HIT:    9253906  MISS:     134975
L1I RFO       ACCESS:          0  HIT:          0  MISS:          0
L1I PREFETCH  ACCESS:    1448619  HIT:     751044  MISS:     697575
L1I WRITEBACK ACCESS:          0  HIT:          0  MISS:          0
L1I PREFETCH  REQUESTED:    1515405  ISSUED:    1515393  USEFUL:     463481  USELESS:     234077
L1I AVERAGE MISS LATENCY: 27.2909 cycles
L2C TOTAL     ACCESS:    2549286  HIT:    2251261  MISS:     298025
L2C LOAD      ACCESS:     493119  HIT:     428887  MISS:      64232
L2C RFO       ACCESS:     117425  HIT:      46077  MISS:      71348
L2C PREFETCH  ACCESS:    1716740  HIT:    1554904  MISS:     161836
L2C WRITEBACK ACCESS:     222002  HIT:     221393  MISS:        609
L2C PREFETCH  REQUESTED:    1845721  ISSUED:    1845109  USEFUL:      25280  USELESS:     135348
L2C AVERAGE MISS LATENCY: 88.2792 cycles
LLC TOTAL     ACCESS:     729106  HIT:     591581  MISS:     137525
LLC LOAD      ACCESS:      64218  HIT:      45851  MISS:      18367
LLC RFO       ACCESS:      71347  HIT:      40422  MISS:      30925
LLC PREFETCH  ACCESS:     493405  HIT:     405531  MISS:      87874
LLC WRITEBACK ACCESS:     100136  HIT:      99777  MISS:        359
LLC PREFETCH  REQUESTED:          0  ISSUED:          0  USEFUL:      18696  USELESS:      68863
LLC AVERAGE MISS LATENCY: 185.418 cycles
Major fault: 0 Minor fault: 3981
I-Shadow cache 408 bytes
Touched + WorthPF tables 24576 bytes 
MMA filter 174 bytes 
FNL filter 272 bytes 
TOTAL PREFETCHER STORAGE SIZE: 98134 bytes
CPU 0 L1I next line prefetcher final stats
CPU 0 L1D next line prefetcher final stats

DRAM Statistics
 CHANNEL 0
 RQ ROW_BUFFER_HIT:      34972  ROW_BUFFER_MISS:     102183
 DBUS_CONGESTED:      71812
 WQ ROW_BUFFER_HIT:       8119  ROW_BUFFER_MISS:      37211  FULL:          0

 AVG_CONGESTED_CYCLE: 6

CPU 0 Branch Prediction Accuracy: 94.1242% MPKI: 11.6089 Average ROB Occupancy at Mispredict: 56.0552

Branch types
NOT_BRANCH: 40121080 80.2422%
BRANCH_DIRECT_JUMP: 644555 1.28911%
BRANCH_INDIRECT: 201946 0.403892%
BRANCH_CONDITIONAL: 7003557 14.0071%
BRANCH_DIRECT_CALL: 564821 1.12964%
BRANCH_INDIRECT_CALL: 445012 0.890024%
BRANCH_RETURN: 1018716 2.03743%
BRANCH_OTHER: 0 0%

