Initialize SIGNATURE TABLE
ST_SET: 1
ST_WAY: 256
ST_TAG_BIT: 16
ST_TAG_MASK: ffff

Initialize PATTERN TABLE
PT_SET: 512
PT_WAY: 4
SIG_DELTA_BIT: 7
C_SIG_BIT: 4
C_DELTA_BIT: 4

Initialize PREFETCH FILTER
FILTER_SET: 1024

*** ChampSim Multicore Out-of-Order Simulator ***

Warmup Instructions: 50000000
Simulation Instructions: 50000000
Number of CPUs: 1
LLC sets: 2048
LLC ways: 16
Off-chip DRAM Size: 4096 MB Channels: 1 Width: 64-bit Data Rate: 3200 MT/s

CPU 0 runs /Users/brandon/Documents/CoursesWi22/CSE240C/Homework1/ChampSim/ipc1_public/client_007.champsimtrace.xz
CPU 0 L1I next line prefetcher
CPU 0 L1D next line prefetcher
Heartbeat CPU 0 instructions: 10000001 cycles: 3641619 heartbeat IPC: 2.74603 cumulative IPC: 2.74603 (Simulation time: 0 hr 2 min 39 sec) 
Heartbeat CPU 0 instructions: 20000003 cycles: 7032689 heartbeat IPC: 2.94892 cumulative IPC: 2.84386 (Simulation time: 0 hr 5 min 11 sec) 
Heartbeat CPU 0 instructions: 30000000 cycles: 10903572 heartbeat IPC: 2.58339 cumulative IPC: 2.75139 (Simulation time: 0 hr 8 min 11 sec) 
Heartbeat CPU 0 instructions: 40000003 cycles: 15063662 heartbeat IPC: 2.40379 cumulative IPC: 2.6554 (Simulation time: 0 hr 10 min 5 sec) 
Heartbeat CPU 0 instructions: 50000002 cycles: 18467936 heartbeat IPC: 2.93748 cumulative IPC: 2.7074 (Simulation time: 0 hr 11 min 42 sec) 

Warmup complete CPU 0 instructions: 50000002 cycles: 18467936 (Simulation time: 0 hr 11 min 42 sec) 

Heartbeat CPU 0 instructions: 60000003 cycles: 25360095 heartbeat IPC: 1.45092 cumulative IPC: 1.45092 (Simulation time: 0 hr 13 min 24 sec) 
Heartbeat CPU 0 instructions: 70000003 cycles: 34221400 heartbeat IPC: 1.1285 cumulative IPC: 1.26956 (Simulation time: 0 hr 15 min 14 sec) 
Heartbeat CPU 0 instructions: 80000002 cycles: 39530231 heartbeat IPC: 1.88365 cumulative IPC: 1.42435 (Simulation time: 0 hr 16 min 35 sec) 
Heartbeat CPU 0 instructions: 90000002 cycles: 47139887 heartbeat IPC: 1.31412 cumulative IPC: 1.39509 (Simulation time: 0 hr 18 min 20 sec) 
Heartbeat CPU 0 instructions: 100000002 cycles: 56062684 heartbeat IPC: 1.12072 cumulative IPC: 1.32997 (Simulation time: 0 hr 19 min 36 sec) 
Finished CPU 0 instructions: 50000000 cycles: 37594748 cumulative IPC: 1.32997 (Simulation time: 0 hr 19 min 36 sec) 

ChampSim completed all CPUs

Region of Interest Statistics

CPU 0 cumulative IPC: 1.32997 instructions: 50000000 cycles: 37594748
L1D TOTAL     ACCESS:   21197324  HIT:   20028266  MISS:    1169058
L1D LOAD      ACCESS:    8369173  HIT:    7829943  MISS:     539230
L1D RFO       ACCESS:    4868743  HIT:    4777702  MISS:      91041
L1D PREFETCH  ACCESS:    7959408  HIT:    7420621  MISS:     538787
L1D WRITEBACK ACCESS:          0  HIT:          0  MISS:          0
L1D PREFETCH  REQUESTED:    8421426  ISSUED:    8177722  USEFUL:     158260  USELESS:     380542
L1D AVERAGE MISS LATENCY: 34.4322 cycles
L1I TOTAL     ACCESS:   10582618  HIT:    9489591  MISS:    1093027
L1I LOAD      ACCESS:    9115746  HIT:    9087555  MISS:      28191
L1I RFO       ACCESS:          0  HIT:          0  MISS:          0
L1I PREFETCH  ACCESS:    1466872  HIT:     402036  MISS:    1064836
L1I WRITEBACK ACCESS:          0  HIT:          0  MISS:          0
L1I PREFETCH  REQUESTED:    1488689  ISSUED:    1488689  USEFUL:     847808  USELESS:     217094
L1I AVERAGE MISS LATENCY: 16.2755 cycles
L2C TOTAL     ACCESS:    3217699  HIT:    3007739  MISS:     209960
L2C LOAD      ACCESS:     533251  HIT:     462792  MISS:      70459
L2C RFO       ACCESS:      89505  HIT:      48158  MISS:      41347
L2C PREFETCH  ACCESS:    2267282  HIT:    2169213  MISS:      98069
L2C WRITEBACK ACCESS:     327661  HIT:     327576  MISS:         85
L2C PREFETCH  REQUESTED:    2552248  ISSUED:    2549517  USEFUL:       9152  USELESS:      89133
L2C AVERAGE MISS LATENCY: 123.048 cycles
LLC TOTAL     ACCESS:     973682  HIT:     805453  MISS:     168229
LLC LOAD      ACCESS:      70372  HIT:      35202  MISS:      35170
LLC RFO       ACCESS:      41347  HIT:       6914  MISS:      34433
LLC PREFETCH  ACCESS:     787878  HIT:     689540  MISS:      98338
LLC WRITEBACK ACCESS:      74085  HIT:      73797  MISS:        288
LLC PREFETCH  REQUESTED:          0  ISSUED:          0  USEFUL:      18390  USELESS:      80662
LLC AVERAGE MISS LATENCY: 181.153 cycles
Major fault: 0 Minor fault: 4407
I-Shadow cache 408 bytes
Touched + WorthPF tables 24576 bytes 
MMA filter 174 bytes 
FNL filter 272 bytes 
TOTAL PREFETCHER STORAGE SIZE: 98134 bytes
CPU 0 L1I next line prefetcher final stats
CPU 0 L1D next line prefetcher final stats

DRAM Statistics
 CHANNEL 0
 RQ ROW_BUFFER_HIT:      35915  ROW_BUFFER_MISS:     132019
 DBUS_CONGESTED:      94635
 WQ ROW_BUFFER_HIT:      12890  ROW_BUFFER_MISS:      45294  FULL:          0

 AVG_CONGESTED_CYCLE: 5

CPU 0 Branch Prediction Accuracy: 98.8607% MPKI: 1.8623 Average ROB Occupancy at Mispredict: 113.366

Branch types
NOT_BRANCH: 41826773 83.6535%
BRANCH_DIRECT_JUMP: 735330 1.47066%
BRANCH_INDIRECT: 269194 0.538388%
BRANCH_CONDITIONAL: 5957947 11.9159%
BRANCH_DIRECT_CALL: 368758 0.737516%
BRANCH_INDIRECT_CALL: 226975 0.45395%
BRANCH_RETURN: 614696 1.22939%
BRANCH_OTHER: 0 0%

