Initialize SIGNATURE TABLE
ST_SET: 1
ST_WAY: 256
ST_TAG_BIT: 16
ST_TAG_MASK: ffff

Initialize PATTERN TABLE
PT_SET: 512
PT_WAY: 4
SIG_DELTA_BIT: 7
C_SIG_BIT: 4
C_DELTA_BIT: 4

Initialize PREFETCH FILTER
FILTER_SET: 1024

*** ChampSim Multicore Out-of-Order Simulator ***

Warmup Instructions: 50000000
Simulation Instructions: 50000000
Number of CPUs: 1
LLC sets: 2048
LLC ways: 16
Off-chip DRAM Size: 4096 MB Channels: 1 Width: 64-bit Data Rate: 3200 MT/s

CPU 0 runs /Users/brandon/Documents/CoursesWi22/CSE240C/Homework1/ChampSim/ipc1_public/client_003.champsimtrace.xz
CPU 0 L1I next line prefetcher
CPU 0 L1D next line prefetcher
Heartbeat CPU 0 instructions: 10000000 cycles: 3478129 heartbeat IPC: 2.87511 cumulative IPC: 2.87511 (Simulation time: 0 hr 2 min 46 sec) 
Heartbeat CPU 0 instructions: 20000002 cycles: 6932137 heartbeat IPC: 2.89519 cumulative IPC: 2.88511 (Simulation time: 0 hr 5 min 34 sec) 
Heartbeat CPU 0 instructions: 30000003 cycles: 10492977 heartbeat IPC: 2.80833 cumulative IPC: 2.85906 (Simulation time: 0 hr 8 min 35 sec) 
Heartbeat CPU 0 instructions: 40000001 cycles: 14109346 heartbeat IPC: 2.7652 cumulative IPC: 2.835 (Simulation time: 0 hr 10 min 13 sec) 
Heartbeat CPU 0 instructions: 50000003 cycles: 17654468 heartbeat IPC: 2.82078 cumulative IPC: 2.83214 (Simulation time: 0 hr 11 min 56 sec) 

Warmup complete CPU 0 instructions: 50000003 cycles: 17654468 (Simulation time: 0 hr 11 min 56 sec) 

Heartbeat CPU 0 instructions: 60000002 cycles: 23939761 heartbeat IPC: 1.59102 cumulative IPC: 1.59102 (Simulation time: 0 hr 13 min 27 sec) 
Heartbeat CPU 0 instructions: 70000001 cycles: 30009900 heartbeat IPC: 1.64741 cumulative IPC: 1.61872 (Simulation time: 0 hr 15 min 2 sec) 
Heartbeat CPU 0 instructions: 80000001 cycles: 36856689 heartbeat IPC: 1.46054 cumulative IPC: 1.56232 (Simulation time: 0 hr 16 min 40 sec) 
Heartbeat CPU 0 instructions: 90000000 cycles: 45809278 heartbeat IPC: 1.117 cumulative IPC: 1.42072 (Simulation time: 0 hr 17 min 52 sec) 
Heartbeat CPU 0 instructions: 100000003 cycles: 56624309 heartbeat IPC: 0.924639 cumulative IPC: 1.28304 (Simulation time: 0 hr 19 min 17 sec) 
Finished CPU 0 instructions: 50000000 cycles: 38969841 cumulative IPC: 1.28304 (Simulation time: 0 hr 19 min 17 sec) 

ChampSim completed all CPUs

Region of Interest Statistics

CPU 0 cumulative IPC: 1.28304 instructions: 50000000 cycles: 38969841
L1D TOTAL     ACCESS:   17655286  HIT:   17159299  MISS:     495987
L1D LOAD      ACCESS:    6045642  HIT:    5919450  MISS:     126192
L1D RFO       ACCESS:    5949523  HIT:    5715149  MISS:     234374
L1D PREFETCH  ACCESS:    5660121  HIT:    5524700  MISS:     135421
L1D WRITEBACK ACCESS:          0  HIT:          0  MISS:          0
L1D PREFETCH  REQUESTED:    6087503  ISSUED:    5946391  USEFUL:      67482  USELESS:      67987
L1D AVERAGE MISS LATENCY: 120.884 cycles
L1I TOTAL     ACCESS:   11480760  HIT:   10709619  MISS:     771141
L1I LOAD      ACCESS:    9446690  HIT:    9333027  MISS:     113663
L1I RFO       ACCESS:          0  HIT:          0  MISS:          0
L1I PREFETCH  ACCESS:    2034070  HIT:    1376592  MISS:     657478
L1I WRITEBACK ACCESS:          0  HIT:          0  MISS:          0
L1I PREFETCH  REQUESTED:    2108700  ISSUED:    2108687  USEFUL:     429200  USELESS:     228290
L1I AVERAGE MISS LATENCY: 20.4533 cycles
L2C TOTAL     ACCESS:    1872680  HIT:    1476391  MISS:     396289
L2C LOAD      ACCESS:     189191  HIT:     144808  MISS:      44383
L2C RFO       ACCESS:     232323  HIT:      25929  MISS:     206394
L2C PREFETCH  ACCESS:    1181853  HIT:    1037546  MISS:     144307
L2C WRITEBACK ACCESS:     269313  HIT:     268108  MISS:       1205
L2C PREFETCH  REQUESTED:    1371032  ISSUED:    1370396  USEFUL:      12563  USELESS:     132262
L2C AVERAGE MISS LATENCY: 165.368 cycles
LLC TOTAL     ACCESS:    1003452  HIT:     715372  MISS:     288080
LLC LOAD      ACCESS:      44271  HIT:      30864  MISS:      13407
LLC RFO       ACCESS:     206386  HIT:      34576  MISS:     171810
LLC PREFETCH  ACCESS:     528668  HIT:     426223  MISS:     102445
LLC WRITEBACK ACCESS:     224127  HIT:     223709  MISS:        418
LLC PREFETCH  REQUESTED:          0  ISSUED:          0  USEFUL:      10790  USELESS:      92482
LLC AVERAGE MISS LATENCY: 226.707 cycles
Major fault: 0 Minor fault: 5042
I-Shadow cache 408 bytes
Touched + WorthPF tables 24576 bytes 
MMA filter 174 bytes 
FNL filter 272 bytes 
TOTAL PREFETCHER STORAGE SIZE: 98134 bytes
CPU 0 L1I next line prefetcher final stats
CPU 0 L1D next line prefetcher final stats

DRAM Statistics
 CHANNEL 0
 RQ ROW_BUFFER_HIT:     101494  ROW_BUFFER_MISS:     186162
 DBUS_CONGESTED:     259470
 WQ ROW_BUFFER_HIT:      60145  ROW_BUFFER_MISS:     119081  FULL:          0

 AVG_CONGESTED_CYCLE: 6

CPU 0 Branch Prediction Accuracy: 98.6631% MPKI: 2.66884 Average ROB Occupancy at Mispredict: 76.6998

Branch types
NOT_BRANCH: 40018780 80.0376%
BRANCH_DIRECT_JUMP: 370861 0.741722%
BRANCH_INDIRECT: 83253 0.166506%
BRANCH_CONDITIONAL: 7877436 15.7549%
BRANCH_DIRECT_CALL: 722316 1.44463%
BRANCH_INDIRECT_CALL: 101901 0.203802%
BRANCH_RETURN: 825355 1.65071%
BRANCH_OTHER: 0 0%

