Initialize SIGNATURE TABLE
ST_SET: 1
ST_WAY: 256
ST_TAG_BIT: 16
ST_TAG_MASK: ffff

Initialize PATTERN TABLE
PT_SET: 512
PT_WAY: 4
SIG_DELTA_BIT: 7
C_SIG_BIT: 4
C_DELTA_BIT: 4

Initialize PREFETCH FILTER
FILTER_SET: 1024

*** ChampSim Multicore Out-of-Order Simulator ***

Warmup Instructions: 50000000
Simulation Instructions: 50000000
Number of CPUs: 1
LLC sets: 2048
LLC ways: 16
Off-chip DRAM Size: 4096 MB Channels: 1 Width: 64-bit Data Rate: 3200 MT/s

CPU 0 runs /Users/brandon/Documents/CoursesWi22/CSE240C/Homework1/ChampSim/ipc1_public/server_026.champsimtrace.xz
CPU 0 L1I next line prefetcher
CPU 0 L1D next line prefetcher
Heartbeat CPU 0 instructions: 10000000 cycles: 3524634 heartbeat IPC: 2.83717 cumulative IPC: 2.83717 (Simulation time: 0 hr 1 min 45 sec) 
Heartbeat CPU 0 instructions: 20000002 cycles: 7055019 heartbeat IPC: 2.83255 cumulative IPC: 2.83486 (Simulation time: 0 hr 3 min 25 sec) 
Heartbeat CPU 0 instructions: 30000000 cycles: 10575182 heartbeat IPC: 2.84078 cumulative IPC: 2.83683 (Simulation time: 0 hr 5 min 6 sec) 
Heartbeat CPU 0 instructions: 40000003 cycles: 14104225 heartbeat IPC: 2.83363 cumulative IPC: 2.83603 (Simulation time: 0 hr 6 min 47 sec) 
Heartbeat CPU 0 instructions: 50000000 cycles: 17626587 heartbeat IPC: 2.839 cumulative IPC: 2.83662 (Simulation time: 0 hr 8 min 30 sec) 

Warmup complete CPU 0 instructions: 50000004 cycles: 17626588 (Simulation time: 0 hr 8 min 30 sec) 

*** Reached end of trace for Core: 0 Repeating trace: /Users/brandon/Documents/CoursesWi22/CSE240C/Homework1/ChampSim/ipc1_public/server_026.champsimtrace.xz
Heartbeat CPU 0 instructions: 60000000 cycles: 24559495 heartbeat IPC: 1.4424 cumulative IPC: 1.4424 (Simulation time: 0 hr 10 min 16 sec) 
Heartbeat CPU 0 instructions: 70000003 cycles: 31375146 heartbeat IPC: 1.46721 cumulative IPC: 1.4547 (Simulation time: 0 hr 12 min 4 sec) 
Heartbeat CPU 0 instructions: 80000002 cycles: 38296669 heartbeat IPC: 1.44477 cumulative IPC: 1.45137 (Simulation time: 0 hr 13 min 39 sec) 
Heartbeat CPU 0 instructions: 90000002 cycles: 45115455 heartbeat IPC: 1.46654 cumulative IPC: 1.45513 (Simulation time: 0 hr 15 min 6 sec) 
Heartbeat CPU 0 instructions: 100000000 cycles: 52021507 heartbeat IPC: 1.44801 cumulative IPC: 1.4537 (Simulation time: 0 hr 16 min 22 sec) 
Finished CPU 0 instructions: 50000000 cycles: 34394920 cumulative IPC: 1.4537 (Simulation time: 0 hr 16 min 22 sec) 

ChampSim completed all CPUs

Region of Interest Statistics

CPU 0 cumulative IPC: 1.4537 instructions: 50000000 cycles: 34394920
L1D TOTAL     ACCESS:   19779887  HIT:   18134990  MISS:    1644897
L1D LOAD      ACCESS:    6937307  HIT:    6207212  MISS:     730095
L1D RFO       ACCESS:    6241783  HIT:    5955076  MISS:     286707
L1D PREFETCH  ACCESS:    6600797  HIT:    5972702  MISS:     628095
L1D WRITEBACK ACCESS:          0  HIT:          0  MISS:          0
L1D PREFETCH  REQUESTED:    6985757  ISSUED:    6843281  USEFUL:     150531  USELESS:     477574
L1D AVERAGE MISS LATENCY: 24.4946 cycles
L1I TOTAL     ACCESS:   14609216  HIT:   10817415  MISS:    3791801
L1I LOAD      ACCESS:    9457604  HIT:    9319123  MISS:     138481
L1I RFO       ACCESS:          0  HIT:          0  MISS:          0
L1I PREFETCH  ACCESS:    5151612  HIT:    1498292  MISS:    3653320
L1I WRITEBACK ACCESS:          0  HIT:          0  MISS:          0
L1I PREFETCH  REQUESTED:    5424392  ISSUED:    5423526  USEFUL:    2707395  USELESS:     945922
L1I AVERAGE MISS LATENCY: 18.3213 cycles
L2C TOTAL     ACCESS:    7307806  HIT:    6398689  MISS:     909117
L2C LOAD      ACCESS:     714070  HIT:     560811  MISS:     153259
L2C RFO       ACCESS:     284803  HIT:     178939  MISS:     105864
L2C PREFETCH  ACCESS:    5747767  HIT:    5102426  MISS:     645341
L2C WRITEBACK ACCESS:     561166  HIT:     556513  MISS:       4653
L2C PREFETCH  REQUESTED:    7070916  ISSUED:    7058704  USEFUL:      16643  USELESS:     628383
L2C AVERAGE MISS LATENCY: 38.8705 cycles
LLC TOTAL     ACCESS:    2754408  HIT:    2717050  MISS:      37358
LLC LOAD      ACCESS:     152989  HIT:     149403  MISS:       3586
LLC RFO       ACCESS:     105841  HIT:      91204  MISS:      14637
LLC PREFETCH  ACCESS:    2320565  HIT:    2301664  MISS:      18901
LLC WRITEBACK ACCESS:     175013  HIT:     174779  MISS:        234
LLC PREFETCH  REQUESTED:          0  ISSUED:          0  USEFUL:       1087  USELESS:      17372
LLC AVERAGE MISS LATENCY: 187.648 cycles
Major fault: 0 Minor fault: 2166
I-Shadow cache 408 bytes
Touched + WorthPF tables 24576 bytes 
MMA filter 174 bytes 
FNL filter 272 bytes 
TOTAL PREFETCHER STORAGE SIZE: 98134 bytes
CPU 0 L1I next line prefetcher final stats
CPU 0 L1D next line prefetcher final stats

DRAM Statistics
 CHANNEL 0
 RQ ROW_BUFFER_HIT:      13024  ROW_BUFFER_MISS:      24085
 DBUS_CONGESTED:      24850
 WQ ROW_BUFFER_HIT:       1691  ROW_BUFFER_MISS:      14662  FULL:          0

 AVG_CONGESTED_CYCLE: 6

CPU 0 Branch Prediction Accuracy: 99.822% MPKI: 0.32584 Average ROB Occupancy at Mispredict: 201.736

Branch types
NOT_BRANCH: 40848558 81.6971%
BRANCH_DIRECT_JUMP: 522045 1.04409%
BRANCH_INDIRECT: 204034 0.408068%
BRANCH_CONDITIONAL: 6212961 12.4259%
BRANCH_DIRECT_CALL: 932391 1.86478%
BRANCH_INDIRECT_CALL: 173764 0.347528%
BRANCH_RETURN: 1106152 2.2123%
BRANCH_OTHER: 0 0%

