Initialize SIGNATURE TABLE
ST_SET: 1
ST_WAY: 256
ST_TAG_BIT: 16
ST_TAG_MASK: ffff

Initialize PATTERN TABLE
PT_SET: 512
PT_WAY: 4
SIG_DELTA_BIT: 7
C_SIG_BIT: 4
C_DELTA_BIT: 4

Initialize PREFETCH FILTER
FILTER_SET: 1024

*** ChampSim Multicore Out-of-Order Simulator ***

Warmup Instructions: 50000000
Simulation Instructions: 50000000
Number of CPUs: 1
LLC sets: 2048
LLC ways: 16
Off-chip DRAM Size: 4096 MB Channels: 1 Width: 64-bit Data Rate: 3200 MT/s

CPU 0 runs /Users/brandon/Documents/CoursesWi22/CSE240C/Homework1/ChampSim/ipc1_public/server_002.champsimtrace.xz
CPU 0 L1I next line prefetcher
CPU 0 L1D next line prefetcher
Heartbeat CPU 0 instructions: 10000000 cycles: 3581213 heartbeat IPC: 2.79235 cumulative IPC: 2.79235 (Simulation time: 0 hr 2 min 46 sec) 
Heartbeat CPU 0 instructions: 20000002 cycles: 7169936 heartbeat IPC: 2.78651 cumulative IPC: 2.78943 (Simulation time: 0 hr 5 min 34 sec) 
Heartbeat CPU 0 instructions: 30000000 cycles: 10710667 heartbeat IPC: 2.82428 cumulative IPC: 2.80095 (Simulation time: 0 hr 8 min 35 sec) 
Heartbeat CPU 0 instructions: 40000000 cycles: 14260912 heartbeat IPC: 2.81671 cumulative IPC: 2.80487 (Simulation time: 0 hr 10 min 12 sec) 
Heartbeat CPU 0 instructions: 50000001 cycles: 17808683 heartbeat IPC: 2.81867 cumulative IPC: 2.80762 (Simulation time: 0 hr 11 min 55 sec) 

Warmup complete CPU 0 instructions: 50000001 cycles: 17808683 (Simulation time: 0 hr 11 min 55 sec) 

Heartbeat CPU 0 instructions: 60000000 cycles: 24255436 heartbeat IPC: 1.55117 cumulative IPC: 1.55117 (Simulation time: 0 hr 13 min 44 sec) 
Heartbeat CPU 0 instructions: 70000003 cycles: 30691002 heartbeat IPC: 1.55387 cumulative IPC: 1.55252 (Simulation time: 0 hr 15 min 34 sec) 
Heartbeat CPU 0 instructions: 80000003 cycles: 37128249 heartbeat IPC: 1.55346 cumulative IPC: 1.55283 (Simulation time: 0 hr 17 min 31 sec) 
Heartbeat CPU 0 instructions: 90000002 cycles: 43563323 heartbeat IPC: 1.55398 cumulative IPC: 1.55312 (Simulation time: 0 hr 19 min 18 sec) 
Heartbeat CPU 0 instructions: 100000003 cycles: 49996896 heartbeat IPC: 1.55435 cumulative IPC: 1.55336 (Simulation time: 0 hr 20 min 16 sec) 
Finished CPU 0 instructions: 50000002 cycles: 32188213 cumulative IPC: 1.55336 (Simulation time: 0 hr 20 min 16 sec) 

ChampSim completed all CPUs

Region of Interest Statistics

CPU 0 cumulative IPC: 1.55336 instructions: 50000002 cycles: 32188213
L1D TOTAL     ACCESS:   21524579  HIT:   21523770  MISS:        809
L1D LOAD      ACCESS:    6601959  HIT:    6601583  MISS:        376
L1D RFO       ACCESS:    8433020  HIT:    8432907  MISS:        113
L1D PREFETCH  ACCESS:    6489600  HIT:    6489280  MISS:        320
L1D WRITEBACK ACCESS:          0  HIT:          0  MISS:          0
L1D PREFETCH  REQUESTED:    6602017  ISSUED:    6496974  USEFUL:         91  USELESS:        231
L1D AVERAGE MISS LATENCY: 39.6922 cycles
L1I TOTAL     ACCESS:   14764631  HIT:   13770769  MISS:     993862
L1I LOAD      ACCESS:    9807868  HIT:    9774355  MISS:      33513
L1I RFO       ACCESS:          0  HIT:          0  MISS:          0
L1I PREFETCH  ACCESS:    4956763  HIT:    3996414  MISS:     960349
L1I WRITEBACK ACCESS:          0  HIT:          0  MISS:          0
L1I PREFETCH  REQUESTED:    5101141  ISSUED:    5101141  USEFUL:     841317  USELESS:     119036
L1I AVERAGE MISS LATENCY: 13.9217 cycles
L2C TOTAL     ACCESS:    1192515  HIT:    1192161  MISS:        354
L2C LOAD      ACCESS:       7620  HIT:       7540  MISS:         80
L2C RFO       ACCESS:        113  HIT:        108  MISS:          5
L2C PREFETCH  ACCESS:    1184446  HIT:    1184177  MISS:        269
L2C WRITEBACK ACCESS:        336  HIT:        336  MISS:          0
L2C PREFETCH  REQUESTED:     607209  ISSUED:     607183  USEFUL:        103  USELESS:        148
L2C AVERAGE MISS LATENCY: 173.003 cycles
LLC TOTAL     ACCESS:     185316  HIT:     184323  MISS:        993
LLC LOAD      ACCESS:         80  HIT:         65  MISS:         15
LLC RFO       ACCESS:          5  HIT:          3  MISS:          2
LLC PREFETCH  ACCESS:     185128  HIT:     184155  MISS:        973
LLC WRITEBACK ACCESS:        103  HIT:        100  MISS:          3
LLC PREFETCH  REQUESTED:          0  ISSUED:          0  USEFUL:         17  USELESS:        238
LLC AVERAGE MISS LATENCY: 661.174 cycles
Major fault: 0 Minor fault: 1867
I-Shadow cache 408 bytes
Touched + WorthPF tables 24576 bytes 
MMA filter 174 bytes 
FNL filter 272 bytes 
TOTAL PREFETCHER STORAGE SIZE: 98134 bytes
CPU 0 L1I next line prefetcher final stats
CPU 0 L1D next line prefetcher final stats

DRAM Statistics
 CHANNEL 0
 RQ ROW_BUFFER_HIT:        233  ROW_BUFFER_MISS:        757
 DBUS_CONGESTED:        811
 WQ ROW_BUFFER_HIT:        122  ROW_BUFFER_MISS:        550  FULL:          0

 AVG_CONGESTED_CYCLE: 6

CPU 0 Branch Prediction Accuracy: 99.8789% MPKI: 0.20388 Average ROB Occupancy at Mispredict: 277.632

Branch types
NOT_BRANCH: 41580695 83.1614%
BRANCH_DIRECT_JUMP: 461630 0.92326%
BRANCH_INDIRECT: 0 0%
BRANCH_CONDITIONAL: 5376437 10.7529%
BRANCH_DIRECT_CALL: 1175775 2.35155%
BRANCH_INDIRECT_CALL: 114840 0.22968%
BRANCH_RETURN: 1290625 2.58125%
BRANCH_OTHER: 0 0%

