Initialize SIGNATURE TABLE
ST_SET: 1
ST_WAY: 256
ST_TAG_BIT: 16
ST_TAG_MASK: ffff

Initialize PATTERN TABLE
PT_SET: 512
PT_WAY: 4
SIG_DELTA_BIT: 7
C_SIG_BIT: 4
C_DELTA_BIT: 4

Initialize PREFETCH FILTER
FILTER_SET: 1024

*** ChampSim Multicore Out-of-Order Simulator ***

Warmup Instructions: 50000000
Simulation Instructions: 50000000
Number of CPUs: 1
LLC sets: 2048
LLC ways: 16
Off-chip DRAM Size: 4096 MB Channels: 1 Width: 64-bit Data Rate: 3200 MT/s

CPU 0 runs /Users/brandon/Documents/CoursesWi22/CSE240C/Homework1/ChampSim/ipc1_public/server_016.champsimtrace.xz
CPU 0 L1I next line prefetcher
CPU 0 L1D next line prefetcher
Heartbeat CPU 0 instructions: 10000000 cycles: 3497562 heartbeat IPC: 2.85913 cumulative IPC: 2.85913 (Simulation time: 0 hr 2 min 54 sec) 
Heartbeat CPU 0 instructions: 20000000 cycles: 6995492 heartbeat IPC: 2.85883 cumulative IPC: 2.85898 (Simulation time: 0 hr 5 min 46 sec) 
Heartbeat CPU 0 instructions: 30000001 cycles: 10488594 heartbeat IPC: 2.86279 cumulative IPC: 2.86025 (Simulation time: 0 hr 8 min 48 sec) 
Heartbeat CPU 0 instructions: 40000000 cycles: 13786887 heartbeat IPC: 3.03187 cumulative IPC: 2.90131 (Simulation time: 0 hr 9 min 30 sec) 
Heartbeat CPU 0 instructions: 50000002 cycles: 17022352 heartbeat IPC: 3.09075 cumulative IPC: 2.93731 (Simulation time: 0 hr 10 min 0 sec) 

Warmup complete CPU 0 instructions: 50000002 cycles: 17022352 (Simulation time: 0 hr 10 min 0 sec) 

Heartbeat CPU 0 instructions: 60000000 cycles: 24987080 heartbeat IPC: 1.25554 cumulative IPC: 1.25554 (Simulation time: 0 hr 10 min 40 sec) 
Heartbeat CPU 0 instructions: 70000001 cycles: 31768112 heartbeat IPC: 1.4747 cumulative IPC: 1.35632 (Simulation time: 0 hr 12 min 30 sec) 
Heartbeat CPU 0 instructions: 80000001 cycles: 38656859 heartbeat IPC: 1.45164 cumulative IPC: 1.38667 (Simulation time: 0 hr 14 min 23 sec) 
Heartbeat CPU 0 instructions: 90000000 cycles: 45320547 heartbeat IPC: 1.50067 cumulative IPC: 1.41352 (Simulation time: 0 hr 16 min 22 sec) 
Heartbeat CPU 0 instructions: 100000000 cycles: 52132816 heartbeat IPC: 1.46794 cumulative IPC: 1.42408 (Simulation time: 0 hr 18 min 17 sec) 
Finished CPU 0 instructions: 50000002 cycles: 35110465 cumulative IPC: 1.42408 (Simulation time: 0 hr 18 min 17 sec) 

ChampSim completed all CPUs

Region of Interest Statistics

CPU 0 cumulative IPC: 1.42408 instructions: 50000002 cycles: 35110465
L1D TOTAL     ACCESS:   17927407  HIT:   16660034  MISS:    1267373
L1D LOAD      ACCESS:    6508760  HIT:    5934484  MISS:     574276
L1D RFO       ACCESS:    5194341  HIT:    4972156  MISS:     222185
L1D PREFETCH  ACCESS:    6224306  HIT:    5753394  MISS:     470912
L1D WRITEBACK ACCESS:          0  HIT:          0  MISS:          0
L1D PREFETCH  REQUESTED:    6551894  ISSUED:    6446610  USEFUL:     111768  USELESS:     359163
L1D AVERAGE MISS LATENCY: 24.1279 cycles
L1I TOTAL     ACCESS:   13685270  HIT:   10841606  MISS:    2843664
L1I LOAD      ACCESS:    9849855  HIT:    9753065  MISS:      96790
L1I RFO       ACCESS:          0  HIT:          0  MISS:          0
L1I PREFETCH  ACCESS:    3835415  HIT:    1088541  MISS:    2746874
L1I WRITEBACK ACCESS:          0  HIT:          0  MISS:          0
L1I PREFETCH  REQUESTED:    4019668  ISSUED:    4019642  USEFUL:    2059139  USELESS:     687680
L1I AVERAGE MISS LATENCY: 18.02 cycles
L2C TOTAL     ACCESS:    5502324  HIT:    4872844  MISS:     629480
L2C LOAD      ACCESS:     547100  HIT:     433664  MISS:     113436
L2C RFO       ACCESS:     220403  HIT:     154258  MISS:      66145
L2C PREFETCH  ACCESS:    4306570  HIT:    3858711  MISS:     447859
L2C WRITEBACK ACCESS:     428251  HIT:     426211  MISS:       2040
L2C PREFETCH  REQUESTED:    5077957  ISSUED:    5071766  USEFUL:      11619  USELESS:     435285
L2C AVERAGE MISS LATENCY: 40.7882 cycles
LLC TOTAL     ACCESS:    1922746  HIT:    1883606  MISS:      39140
LLC LOAD      ACCESS:     113221  HIT:     108907  MISS:       4314
LLC RFO       ACCESS:      66093  HIT:      52653  MISS:      13440
LLC PREFETCH  ACCESS:    1630276  HIT:    1609039  MISS:      21237
LLC WRITEBACK ACCESS:     113156  HIT:     113007  MISS:        149
LLC PREFETCH  REQUESTED:          0  ISSUED:          0  USEFUL:       1875  USELESS:      18563
LLC AVERAGE MISS LATENCY: 177.3 cycles
Major fault: 0 Minor fault: 2366
I-Shadow cache 408 bytes
Touched + WorthPF tables 24576 bytes 
MMA filter 174 bytes 
FNL filter 272 bytes 
TOTAL PREFETCHER STORAGE SIZE: 98134 bytes
CPU 0 L1I next line prefetcher final stats
CPU 0 L1D next line prefetcher final stats

DRAM Statistics
 CHANNEL 0
 RQ ROW_BUFFER_HIT:      11899  ROW_BUFFER_MISS:      27092
 DBUS_CONGESTED:      24461
 WQ ROW_BUFFER_HIT:       1667  ROW_BUFFER_MISS:      14929  FULL:          0

 AVG_CONGESTED_CYCLE: 6

CPU 0 Branch Prediction Accuracy: 99.7225% MPKI: 0.50376 Average ROB Occupancy at Mispredict: 132.114

Branch types
NOT_BRANCH: 40924071 81.8481%
BRANCH_DIRECT_JUMP: 487046 0.974092%
BRANCH_INDIRECT: 169159 0.338318%
BRANCH_CONDITIONAL: 6640839 13.2817%
BRANCH_DIRECT_CALL: 755592 1.51118%
BRANCH_INDIRECT_CALL: 133962 0.267924%
BRANCH_RETURN: 889572 1.77914%
BRANCH_OTHER: 0 0%

