Initialize SIGNATURE TABLE
ST_SET: 1
ST_WAY: 256
ST_TAG_BIT: 16
ST_TAG_MASK: ffff

Initialize PATTERN TABLE
PT_SET: 512
PT_WAY: 4
SIG_DELTA_BIT: 7
C_SIG_BIT: 4
C_DELTA_BIT: 4

Initialize PREFETCH FILTER
FILTER_SET: 1024

*** ChampSim Multicore Out-of-Order Simulator ***

Warmup Instructions: 50000000
Simulation Instructions: 50000000
Number of CPUs: 1
LLC sets: 2048
LLC ways: 16
Off-chip DRAM Size: 4096 MB Channels: 1 Width: 64-bit Data Rate: 3200 MT/s

CPU 0 runs /Users/brandon/Documents/CoursesWi22/CSE240C/Homework1/ChampSim/ipc1_public/server_027.champsimtrace.xz
CPU 0 L1I next line prefetcher
CPU 0 L1D next line prefetcher
Heartbeat CPU 0 instructions: 10000001 cycles: 3526349 heartbeat IPC: 2.83579 cumulative IPC: 2.83579 (Simulation time: 0 hr 1 min 44 sec) 
Heartbeat CPU 0 instructions: 20000001 cycles: 7056957 heartbeat IPC: 2.83237 cumulative IPC: 2.83408 (Simulation time: 0 hr 3 min 25 sec) 
Heartbeat CPU 0 instructions: 30000002 cycles: 10582206 heartbeat IPC: 2.83668 cumulative IPC: 2.83495 (Simulation time: 0 hr 5 min 7 sec) 
Heartbeat CPU 0 instructions: 40000000 cycles: 14113313 heartbeat IPC: 2.83197 cumulative IPC: 2.8342 (Simulation time: 0 hr 6 min 47 sec) 
Heartbeat CPU 0 instructions: 50000001 cycles: 17637954 heartbeat IPC: 2.83717 cumulative IPC: 2.8348 (Simulation time: 0 hr 8 min 31 sec) 

Warmup complete CPU 0 instructions: 50000001 cycles: 17637954 (Simulation time: 0 hr 8 min 31 sec) 

Heartbeat CPU 0 instructions: 60000002 cycles: 24531131 heartbeat IPC: 1.45071 cumulative IPC: 1.45071 (Simulation time: 0 hr 10 min 16 sec) 
Heartbeat CPU 0 instructions: 70000003 cycles: 31380591 heartbeat IPC: 1.45997 cumulative IPC: 1.45532 (Simulation time: 0 hr 12 min 5 sec) 
Heartbeat CPU 0 instructions: 80000002 cycles: 38261755 heartbeat IPC: 1.45324 cumulative IPC: 1.45463 (Simulation time: 0 hr 13 min 40 sec) 
Heartbeat CPU 0 instructions: 90000001 cycles: 45205206 heartbeat IPC: 1.44021 cumulative IPC: 1.451 (Simulation time: 0 hr 15 min 7 sec) 
Heartbeat CPU 0 instructions: 100000002 cycles: 52031900 heartbeat IPC: 1.46484 cumulative IPC: 1.45374 (Simulation time: 0 hr 16 min 23 sec) 
Finished CPU 0 instructions: 50000001 cycles: 34393946 cumulative IPC: 1.45374 (Simulation time: 0 hr 16 min 23 sec) 

ChampSim completed all CPUs

Region of Interest Statistics

CPU 0 cumulative IPC: 1.45374 instructions: 50000001 cycles: 34393946
L1D TOTAL     ACCESS:   19899151  HIT:   18297698  MISS:    1601453
L1D LOAD      ACCESS:    6948499  HIT:    6255661  MISS:     692838
L1D RFO       ACCESS:    6290089  HIT:    6004698  MISS:     285391
L1D PREFETCH  ACCESS:    6660563  HIT:    6037339  MISS:     623224
L1D WRITEBACK ACCESS:          0  HIT:          0  MISS:          0
L1D PREFETCH  REQUESTED:    6994248  ISSUED:    6867404  USEFUL:     148367  USELESS:     474870
L1D AVERAGE MISS LATENCY: 24.4433 cycles
L1I TOTAL     ACCESS:   14593472  HIT:   10821734  MISS:    3771738
L1I LOAD      ACCESS:    9458979  HIT:    9316844  MISS:     142135
L1I RFO       ACCESS:          0  HIT:          0  MISS:          0
L1I PREFETCH  ACCESS:    5134493  HIT:    1504890  MISS:    3629603
L1I WRITEBACK ACCESS:          0  HIT:          0  MISS:          0
L1I PREFETCH  REQUESTED:    5405822  ISSUED:    5404617  USEFUL:    2714118  USELESS:     915451
L1I AVERAGE MISS LATENCY: 18.598 cycles
L2C TOTAL     ACCESS:    7111947  HIT:    6184304  MISS:     927643
L2C LOAD      ACCESS:     690919  HIT:     542239  MISS:     148680
L2C RFO       ACCESS:     283518  HIT:     191211  MISS:      92307
L2C PREFETCH  ACCESS:    5578393  HIT:    4896060  MISS:     682333
L2C WRITEBACK ACCESS:     559117  HIT:     554794  MISS:       4323
L2C PREFETCH  REQUESTED:    6278727  ISSUED:    6265661  USEFUL:      14261  USELESS:     667839
L2C AVERAGE MISS LATENCY: 38.3158 cycles
LLC TOTAL     ACCESS:    2673725  HIT:    2637003  MISS:      36722
LLC LOAD      ACCESS:     148426  HIT:     144783  MISS:       3643
LLC RFO       ACCESS:      92248  HIT:      78404  MISS:      13844
LLC PREFETCH  ACCESS:    2268086  HIT:    2249025  MISS:      19061
LLC WRITEBACK ACCESS:     164965  HIT:     164791  MISS:        174
LLC PREFETCH  REQUESTED:          0  ISSUED:          0  USEFUL:       1421  USELESS:      15279
LLC AVERAGE MISS LATENCY: 183.609 cycles
Major fault: 0 Minor fault: 2478
I-Shadow cache 408 bytes
Touched + WorthPF tables 24576 bytes 
MMA filter 174 bytes 
FNL filter 272 bytes 
TOTAL PREFETCHER STORAGE SIZE: 98134 bytes
CPU 0 L1I next line prefetcher final stats
CPU 0 L1D next line prefetcher final stats

DRAM Statistics
 CHANNEL 0
 RQ ROW_BUFFER_HIT:      11406  ROW_BUFFER_MISS:      25137
 DBUS_CONGESTED:      24516
 WQ ROW_BUFFER_HIT:       1968  ROW_BUFFER_MISS:      15624  FULL:          0

 AVG_CONGESTED_CYCLE: 6

CPU 0 Branch Prediction Accuracy: 99.8082% MPKI: 0.35064 Average ROB Occupancy at Mispredict: 192.271

Branch types
NOT_BRANCH: 40857511 81.715%
BRANCH_DIRECT_JUMP: 526635 1.05327%
BRANCH_INDIRECT: 205902 0.411804%
BRANCH_CONDITIONAL: 6184050 12.3681%
BRANCH_DIRECT_CALL: 938468 1.87694%
BRANCH_INDIRECT_CALL: 174486 0.348972%
BRANCH_RETURN: 1112959 2.22592%
BRANCH_OTHER: 0 0%

