Initialize SIGNATURE TABLE
ST_SET: 1
ST_WAY: 256
ST_TAG_BIT: 16
ST_TAG_MASK: ffff

Initialize PATTERN TABLE
PT_SET: 512
PT_WAY: 4
SIG_DELTA_BIT: 7
C_SIG_BIT: 4
C_DELTA_BIT: 4

Initialize PREFETCH FILTER
FILTER_SET: 1024

*** ChampSim Multicore Out-of-Order Simulator ***

Warmup Instructions: 50000000
Simulation Instructions: 50000000
Number of CPUs: 1
LLC sets: 2048
LLC ways: 16
Off-chip DRAM Size: 4096 MB Channels: 1 Width: 64-bit Data Rate: 3200 MT/s

CPU 0 runs /Users/brandon/Documents/CoursesWi22/CSE240C/Homework1/ChampSim/ipc1_public/server_013.champsimtrace.xz
CPU 0 L1I next line prefetcher
CPU 0 L1D next line prefetcher
Heartbeat CPU 0 instructions: 10000000 cycles: 3211271 heartbeat IPC: 3.11403 cumulative IPC: 3.11403 (Simulation time: 0 hr 2 min 40 sec) 
Heartbeat CPU 0 instructions: 20000001 cycles: 6411017 heartbeat IPC: 3.12525 cumulative IPC: 3.11963 (Simulation time: 0 hr 5 min 21 sec) 
Heartbeat CPU 0 instructions: 30000002 cycles: 9614586 heartbeat IPC: 3.12152 cumulative IPC: 3.12026 (Simulation time: 0 hr 8 min 4 sec) 
Heartbeat CPU 0 instructions: 40000002 cycles: 12813862 heartbeat IPC: 3.12571 cumulative IPC: 3.12162 (Simulation time: 0 hr 9 min 54 sec) 
Heartbeat CPU 0 instructions: 50000000 cycles: 16012449 heartbeat IPC: 3.12638 cumulative IPC: 3.12257 (Simulation time: 0 hr 11 min 31 sec) 

Warmup complete CPU 0 instructions: 50000004 cycles: 16012450 (Simulation time: 0 hr 11 min 31 sec) 

Heartbeat CPU 0 instructions: 60000000 cycles: 23529886 heartbeat IPC: 1.33024 cumulative IPC: 1.33024 (Simulation time: 0 hr 13 min 3 sec) 
Heartbeat CPU 0 instructions: 70000002 cycles: 31255306 heartbeat IPC: 1.29443 cumulative IPC: 1.31209 (Simulation time: 0 hr 14 min 37 sec) 
Heartbeat CPU 0 instructions: 80000003 cycles: 38440820 heartbeat IPC: 1.39169 cumulative IPC: 1.33759 (Simulation time: 0 hr 16 min 15 sec) 
Heartbeat CPU 0 instructions: 90000003 cycles: 45807501 heartbeat IPC: 1.35746 cumulative IPC: 1.3425 (Simulation time: 0 hr 17 min 50 sec) 
Heartbeat CPU 0 instructions: 100000003 cycles: 53173781 heartbeat IPC: 1.35754 cumulative IPC: 1.34548 (Simulation time: 0 hr 19 min 20 sec) 
Finished CPU 0 instructions: 50000003 cycles: 37161332 cumulative IPC: 1.34548 (Simulation time: 0 hr 19 min 20 sec) 

ChampSim completed all CPUs

Region of Interest Statistics

CPU 0 cumulative IPC: 1.34548 instructions: 50000003 cycles: 37161332
L1D TOTAL     ACCESS:   17303231  HIT:   16236838  MISS:    1066393
L1D LOAD      ACCESS:    6307973  HIT:    5805895  MISS:     502078
L1D RFO       ACCESS:    4928696  HIT:    4848530  MISS:      80166
L1D PREFETCH  ACCESS:    6066562  HIT:    5582413  MISS:     484149
L1D WRITEBACK ACCESS:          0  HIT:          0  MISS:          0
L1D PREFETCH  REQUESTED:    6343210  ISSUED:    6248921  USEFUL:     132567  USELESS:     351591
L1D AVERAGE MISS LATENCY: 42.6867 cycles
L1I TOTAL     ACCESS:   11918218  HIT:    9842720  MISS:    2075498
L1I LOAD      ACCESS:    8680762  HIT:    8516270  MISS:     164492
L1I RFO       ACCESS:          0  HIT:          0  MISS:          0
L1I PREFETCH  ACCESS:    3237456  HIT:    1326450  MISS:    1911006
L1I WRITEBACK ACCESS:          0  HIT:          0  MISS:          0
L1I PREFETCH  REQUESTED:    3452781  ISSUED:    3452641  USEFUL:    1320151  USELESS:     590838
L1I AVERAGE MISS LATENCY: 29.3603 cycles
L2C TOTAL     ACCESS:    3898959  HIT:    2489160  MISS:    1409799
L2C LOAD      ACCESS:     512420  HIT:     237826  MISS:     274594
L2C RFO       ACCESS:      78901  HIT:      30611  MISS:      48290
L2C PREFETCH  ACCESS:    3031856  HIT:    1946734  MISS:    1085122
L2C WRITEBACK ACCESS:     275782  HIT:     273989  MISS:       1793
L2C PREFETCH  REQUESTED:    3361060  ISSUED:    3358366  USEFUL:      26691  USELESS:    1058575
L2C AVERAGE MISS LATENCY: 47.1591 cycles
LLC TOTAL     ACCESS:    2512530  HIT:    2351768  MISS:     160762
LLC LOAD      ACCESS:     274432  HIT:     251338  MISS:      23094
LLC RFO       ACCESS:      48277  HIT:      38375  MISS:       9902
LLC PREFETCH  ACCESS:    2015101  HIT:    1887664  MISS:     127437
LLC WRITEBACK ACCESS:     174720  HIT:     174391  MISS:        329
LLC PREFETCH  REQUESTED:          0  ISSUED:          0  USEFUL:      10742  USELESS:     115380
LLC AVERAGE MISS LATENCY: 174.31 cycles
Major fault: 0 Minor fault: 6205
I-Shadow cache 408 bytes
Touched + WorthPF tables 24576 bytes 
MMA filter 174 bytes 
FNL filter 272 bytes 
TOTAL PREFETCHER STORAGE SIZE: 98134 bytes
CPU 0 L1I next line prefetcher final stats
CPU 0 L1D next line prefetcher final stats

DRAM Statistics
 CHANNEL 0
 RQ ROW_BUFFER_HIT:      25747  ROW_BUFFER_MISS:     134648
 DBUS_CONGESTED:      70884
 WQ ROW_BUFFER_HIT:      11857  ROW_BUFFER_MISS:      50923  FULL:          0

 AVG_CONGESTED_CYCLE: 5

CPU 0 Branch Prediction Accuracy: 99.4114% MPKI: 1.0933 Average ROB Occupancy at Mispredict: 122.827

Branch types
NOT_BRANCH: 40713227 81.4264%
BRANCH_DIRECT_JUMP: 463701 0.927402%
BRANCH_INDIRECT: 146544 0.293088%
BRANCH_CONDITIONAL: 6981950 13.9639%
BRANCH_DIRECT_CALL: 665005 1.33001%
BRANCH_INDIRECT_CALL: 165152 0.330304%
BRANCH_RETURN: 864311 1.72862%
BRANCH_OTHER: 0 0%

