Initialize SIGNATURE TABLE
ST_SET: 1
ST_WAY: 256
ST_TAG_BIT: 16
ST_TAG_MASK: ffff

Initialize PATTERN TABLE
PT_SET: 512
PT_WAY: 4
SIG_DELTA_BIT: 7
C_SIG_BIT: 4
C_DELTA_BIT: 4

Initialize PREFETCH FILTER
FILTER_SET: 1024

*** ChampSim Multicore Out-of-Order Simulator ***

Warmup Instructions: 50000000
Simulation Instructions: 50000000
Number of CPUs: 1
LLC sets: 2048
LLC ways: 16
Off-chip DRAM Size: 4096 MB Channels: 1 Width: 64-bit Data Rate: 3200 MT/s

CPU 0 runs /Users/brandon/Documents/CoursesWi22/CSE240C/Homework1/ChampSim/ipc1_public/spec_gcc_002.champsimtrace.xz
CPU 0 L1I next line prefetcher
CPU 0 L1D next line prefetcher
Heartbeat CPU 0 instructions: 10000002 cycles: 3595104 heartbeat IPC: 2.78156 cumulative IPC: 2.78156 (Simulation time: 0 hr 1 min 23 sec) 
Heartbeat CPU 0 instructions: 20000000 cycles: 7182950 heartbeat IPC: 2.78719 cumulative IPC: 2.78437 (Simulation time: 0 hr 2 min 36 sec) 
Heartbeat CPU 0 instructions: 30000000 cycles: 10817429 heartbeat IPC: 2.75143 cumulative IPC: 2.7733 (Simulation time: 0 hr 3 min 59 sec) 
Heartbeat CPU 0 instructions: 40000000 cycles: 14381634 heartbeat IPC: 2.80567 cumulative IPC: 2.78133 (Simulation time: 0 hr 5 min 27 sec) 
Heartbeat CPU 0 instructions: 50000002 cycles: 17880373 heartbeat IPC: 2.85817 cumulative IPC: 2.79636 (Simulation time: 0 hr 6 min 38 sec) 

Warmup complete CPU 0 instructions: 50000002 cycles: 17880373 (Simulation time: 0 hr 6 min 38 sec) 

Heartbeat CPU 0 instructions: 60000001 cycles: 49696566 heartbeat IPC: 0.314305 cumulative IPC: 0.314305 (Simulation time: 0 hr 9 min 20 sec) 
Heartbeat CPU 0 instructions: 70000001 cycles: 80514205 heartbeat IPC: 0.32449 cumulative IPC: 0.319316 (Simulation time: 0 hr 12 min 2 sec) 
Heartbeat CPU 0 instructions: 80000002 cycles: 126346804 heartbeat IPC: 0.218185 cumulative IPC: 0.276583 (Simulation time: 0 hr 15 min 2 sec) 
Heartbeat CPU 0 instructions: 90000001 cycles: 167637025 heartbeat IPC: 0.242188 cumulative IPC: 0.2671 (Simulation time: 0 hr 16 min 41 sec) 
Heartbeat CPU 0 instructions: 100000000 cycles: 190857740 heartbeat IPC: 0.43065 cumulative IPC: 0.289055 (Simulation time: 0 hr 17 min 5 sec) 
Finished CPU 0 instructions: 50000002 cycles: 172977375 cumulative IPC: 0.289055 (Simulation time: 0 hr 17 min 5 sec) 

ChampSim completed all CPUs

Region of Interest Statistics

CPU 0 cumulative IPC: 0.289055 instructions: 50000002 cycles: 172977375
L1D TOTAL     ACCESS:   18302318  HIT:   13068817  MISS:    5233501
L1D LOAD      ACCESS:    6345597  HIT:    5333528  MISS:    1012069
L1D RFO       ACCESS:    7069193  HIT:    3468582  MISS:    3600611
L1D PREFETCH  ACCESS:    4887528  HIT:    4266707  MISS:     620821
L1D WRITEBACK ACCESS:          0  HIT:          0  MISS:          0
L1D PREFETCH  REQUESTED:    6365831  ISSUED:    6294967  USEFUL:     461122  USELESS:     159915
L1D AVERAGE MISS LATENCY: 318.71 cycles
L1I TOTAL     ACCESS:   14014438  HIT:   12921968  MISS:    1092470
L1I LOAD      ACCESS:   12003691  HIT:   11912769  MISS:      90922
L1I RFO       ACCESS:          0  HIT:          0  MISS:          0
L1I PREFETCH  ACCESS:    2010747  HIT:    1009199  MISS:    1001548
L1I WRITEBACK ACCESS:          0  HIT:          0  MISS:          0
L1I PREFETCH  REQUESTED:    2148297  ISSUED:    2145715  USEFUL:     619044  USELESS:     382489
L1I AVERAGE MISS LATENCY: 47.7505 cycles
L2C TOTAL     ACCESS:   10447726  HIT:    5081734  MISS:    5365992
L2C LOAD      ACCESS:     306666  HIT:     128001  MISS:     178665
L2C RFO       ACCESS:    3599068  HIT:      10957  MISS:    3588111
L2C PREFETCH  ACCESS:    2816510  HIT:    1217385  MISS:    1599125
L2C WRITEBACK ACCESS:    3725482  HIT:    3725391  MISS:         91
L2C PREFETCH  REQUESTED:    3698823  ISSUED:    3698555  USEFUL:      34786  USELESS:    1564472
L2C AVERAGE MISS LATENCY: 318.667 cycles
LLC TOTAL     ACCESS:   10270830  HIT:    7087434  MISS:    3183396
LLC LOAD      ACCESS:     178532  HIT:     134143  MISS:      44389
LLC RFO       ACCESS:    3588111  HIT:     937006  MISS:    2651105
LLC PREFETCH  ACCESS:    2830699  HIT:    2342797  MISS:     487902
LLC WRITEBACK ACCESS:    3673488  HIT:    3673488  MISS:          0
LLC PREFETCH  REQUESTED:          0  ISSUED:          0  USEFUL:     184486  USELESS:     304148
LLC AVERAGE MISS LATENCY: 503.677 cycles
Major fault: 0 Minor fault: 4152
I-Shadow cache 408 bytes
Touched + WorthPF tables 24576 bytes 
MMA filter 174 bytes 
FNL filter 272 bytes 
TOTAL PREFETCHER STORAGE SIZE: 98134 bytes
CPU 0 L1I next line prefetcher final stats
CPU 0 L1D next line prefetcher final stats

DRAM Statistics
 CHANNEL 0
 RQ ROW_BUFFER_HIT:     859434  ROW_BUFFER_MISS:    2322058
 DBUS_CONGESTED:    4954848
 WQ ROW_BUFFER_HIT:     807429  ROW_BUFFER_MISS:    2045354  FULL:          0

 AVG_CONGESTED_CYCLE: 6

CPU 0 Branch Prediction Accuracy: 99.5987% MPKI: 0.82446 Average ROB Occupancy at Mispredict: 130.386

Branch types
NOT_BRANCH: 39726800 79.4536%
BRANCH_DIRECT_JUMP: 391438 0.782876%
BRANCH_INDIRECT: 62076 0.124152%
BRANCH_CONDITIONAL: 8421539 16.8431%
BRANCH_DIRECT_CALL: 672961 1.34592%
BRANCH_INDIRECT_CALL: 26115 0.05223%
BRANCH_RETURN: 699082 1.39816%
BRANCH_OTHER: 0 0%

