Initialize SIGNATURE TABLE
ST_SET: 1
ST_WAY: 256
ST_TAG_BIT: 16
ST_TAG_MASK: ffff

Initialize PATTERN TABLE
PT_SET: 512
PT_WAY: 4
SIG_DELTA_BIT: 7
C_SIG_BIT: 4
C_DELTA_BIT: 4

Initialize PREFETCH FILTER
FILTER_SET: 1024

*** ChampSim Multicore Out-of-Order Simulator ***

Warmup Instructions: 50000000
Simulation Instructions: 50000000
Number of CPUs: 1
LLC sets: 2048
LLC ways: 16
Off-chip DRAM Size: 4096 MB Channels: 1 Width: 64-bit Data Rate: 3200 MT/s

CPU 0 runs /Users/brandon/Documents/CoursesWi22/CSE240C/Homework1/ChampSim/ipc1_public/spec_perlbench_001.champsimtrace.xz
CPU 0 L1I next line prefetcher
CPU 0 L1D next line prefetcher
Heartbeat CPU 0 instructions: 10000000 cycles: 3275783 heartbeat IPC: 3.05271 cumulative IPC: 3.05271 (Simulation time: 0 hr 1 min 33 sec) 
Heartbeat CPU 0 instructions: 20000000 cycles: 6540268 heartbeat IPC: 3.06327 cumulative IPC: 3.05798 (Simulation time: 0 hr 3 min 5 sec) 
Heartbeat CPU 0 instructions: 30000002 cycles: 9856806 heartbeat IPC: 3.01519 cumulative IPC: 3.04358 (Simulation time: 0 hr 4 min 41 sec) 
Heartbeat CPU 0 instructions: 40000002 cycles: 13112240 heartbeat IPC: 3.07179 cumulative IPC: 3.05059 (Simulation time: 0 hr 6 min 9 sec) 
Heartbeat CPU 0 instructions: 50000001 cycles: 16386198 heartbeat IPC: 3.05441 cumulative IPC: 3.05135 (Simulation time: 0 hr 7 min 36 sec) 

Warmup complete CPU 0 instructions: 50000001 cycles: 16386198 (Simulation time: 0 hr 7 min 36 sec) 

Heartbeat CPU 0 instructions: 60000001 cycles: 24652037 heartbeat IPC: 1.2098 cumulative IPC: 1.2098 (Simulation time: 0 hr 8 min 58 sec) 
Heartbeat CPU 0 instructions: 70000003 cycles: 32754873 heartbeat IPC: 1.23414 cumulative IPC: 1.22185 (Simulation time: 0 hr 10 min 27 sec) 
Heartbeat CPU 0 instructions: 80000000 cycles: 41154505 heartbeat IPC: 1.19053 cumulative IPC: 1.21123 (Simulation time: 0 hr 11 min 51 sec) 
Heartbeat CPU 0 instructions: 90000000 cycles: 46874534 heartbeat IPC: 1.74824 cumulative IPC: 1.31198 (Simulation time: 0 hr 12 min 48 sec) 
Heartbeat CPU 0 instructions: 100000002 cycles: 52743832 heartbeat IPC: 1.70378 cumulative IPC: 1.37523 (Simulation time: 0 hr 13 min 47 sec) 
Finished CPU 0 instructions: 50000001 cycles: 36357634 cumulative IPC: 1.37523 (Simulation time: 0 hr 13 min 47 sec) 

ChampSim completed all CPUs

Region of Interest Statistics

CPU 0 cumulative IPC: 1.37523 instructions: 50000001 cycles: 36357634
L1D TOTAL     ACCESS:   20692006  HIT:   20276915  MISS:     415091
L1D LOAD      ACCESS:    7175640  HIT:    6961912  MISS:     213728
L1D RFO       ACCESS:    6542280  HIT:    6523776  MISS:      18504
L1D PREFETCH  ACCESS:    6974086  HIT:    6791227  MISS:     182859
L1D WRITEBACK ACCESS:          0  HIT:          0  MISS:          0
L1D PREFETCH  REQUESTED:    7191233  ISSUED:    7074672  USEFUL:      55171  USELESS:     127683
L1D AVERAGE MISS LATENCY: 57.7466 cycles
L1I TOTAL     ACCESS:   10929305  HIT:   10236700  MISS:     692605
L1I LOAD      ACCESS:    9152161  HIT:    9077773  MISS:      74388
L1I RFO       ACCESS:          0  HIT:          0  MISS:          0
L1I PREFETCH  ACCESS:    1777144  HIT:    1158927  MISS:     618217
L1I WRITEBACK ACCESS:          0  HIT:          0  MISS:          0
L1I PREFETCH  REQUESTED:    1836044  ISSUED:    1836042  USEFUL:     382509  USELESS:     235693
L1I AVERAGE MISS LATENCY: 17.148 cycles
L2C TOTAL     ACCESS:    1528153  HIT:    1359309  MISS:     168844
L2C LOAD      ACCESS:     270830  HIT:     189735  MISS:      81095
L2C RFO       ACCESS:      18269  HIT:      12840  MISS:       5429
L2C PREFETCH  ACCESS:    1160107  HIT:    1078149  MISS:      81958
L2C WRITEBACK ACCESS:      78947  HIT:      78585  MISS:        362
L2C PREFETCH  REQUESTED:    1177136  ISSUED:    1177115  USEFUL:       6445  USELESS:      75602
L2C AVERAGE MISS LATENCY: 118.044 cycles
LLC TOTAL     ACCESS:     448006  HIT:     303804  MISS:     144202
LLC LOAD      ACCESS:      81092  HIT:      32889  MISS:      48203
LLC RFO       ACCESS:       5429  HIT:       2446  MISS:       2983
LLC PREFETCH  ACCESS:     336057  HIT:     243580  MISS:      92477
LLC WRITEBACK ACCESS:      25428  HIT:      24889  MISS:        539
LLC PREFETCH  REQUESTED:          0  ISSUED:          0  USEFUL:      15397  USELESS:      77354
LLC AVERAGE MISS LATENCY: 159.663 cycles
Major fault: 0 Minor fault: 6365
I-Shadow cache 408 bytes
Touched + WorthPF tables 24576 bytes 
MMA filter 174 bytes 
FNL filter 272 bytes 
TOTAL PREFETCHER STORAGE SIZE: 98134 bytes
CPU 0 L1I next line prefetcher final stats
CPU 0 L1D next line prefetcher final stats

DRAM Statistics
 CHANNEL 0
 RQ ROW_BUFFER_HIT:      32480  ROW_BUFFER_MISS:     111182
 DBUS_CONGESTED:      60930
 WQ ROW_BUFFER_HIT:       4080  ROW_BUFFER_MISS:      13321  FULL:          0

 AVG_CONGESTED_CYCLE: 4

CPU 0 Branch Prediction Accuracy: 98.7418% MPKI: 2.47758 Average ROB Occupancy at Mispredict: 78.6174

Branch types
NOT_BRANCH: 40154100 80.3082%
BRANCH_DIRECT_JUMP: 817094 1.63419%
BRANCH_INDIRECT: 303787 0.607574%
BRANCH_CONDITIONAL: 7492103 14.9842%
BRANCH_DIRECT_CALL: 471777 0.943554%
BRANCH_INDIRECT_CALL: 144546 0.289092%
BRANCH_RETURN: 616324 1.23265%
BRANCH_OTHER: 0 0%

