Initialize SIGNATURE TABLE
ST_SET: 1
ST_WAY: 256
ST_TAG_BIT: 16
ST_TAG_MASK: ffff

Initialize PATTERN TABLE
PT_SET: 512
PT_WAY: 4
SIG_DELTA_BIT: 7
C_SIG_BIT: 4
C_DELTA_BIT: 4

Initialize PREFETCH FILTER
FILTER_SET: 1024

*** ChampSim Multicore Out-of-Order Simulator ***

Warmup Instructions: 50000000
Simulation Instructions: 50000000
Number of CPUs: 1
LLC sets: 2048
LLC ways: 16
Off-chip DRAM Size: 4096 MB Channels: 1 Width: 64-bit Data Rate: 3200 MT/s

CPU 0 runs /Users/brandon/Documents/CoursesWi22/CSE240C/Homework1/ChampSim/ipc1_public/spec_gcc_003.champsimtrace.xz
CPU 0 L1I next line prefetcher
CPU 0 L1D next line prefetcher
Heartbeat CPU 0 instructions: 10000001 cycles: 3481659 heartbeat IPC: 2.87219 cumulative IPC: 2.87219 (Simulation time: 0 hr 1 min 16 sec) 
Heartbeat CPU 0 instructions: 20000000 cycles: 6961044 heartbeat IPC: 2.87407 cumulative IPC: 2.87313 (Simulation time: 0 hr 2 min 25 sec) 
Heartbeat CPU 0 instructions: 30000002 cycles: 10404006 heartbeat IPC: 2.90448 cumulative IPC: 2.8835 (Simulation time: 0 hr 3 min 34 sec) 
Heartbeat CPU 0 instructions: 40000000 cycles: 13869049 heartbeat IPC: 2.88597 cumulative IPC: 2.88412 (Simulation time: 0 hr 4 min 43 sec) 
Heartbeat CPU 0 instructions: 50000001 cycles: 17179906 heartbeat IPC: 3.02037 cumulative IPC: 2.91038 (Simulation time: 0 hr 5 min 52 sec) 

Warmup complete CPU 0 instructions: 50000001 cycles: 17179906 (Simulation time: 0 hr 5 min 52 sec) 

Heartbeat CPU 0 instructions: 60000000 cycles: 56683960 heartbeat IPC: 0.253139 cumulative IPC: 0.253139 (Simulation time: 0 hr 9 min 2 sec) 
Heartbeat CPU 0 instructions: 70000000 cycles: 98527728 heartbeat IPC: 0.238984 cumulative IPC: 0.245858 (Simulation time: 0 hr 12 min 20 sec) 
Heartbeat CPU 0 instructions: 80000003 cycles: 141385173 heartbeat IPC: 0.233332 cumulative IPC: 0.241536 (Simulation time: 0 hr 15 min 13 sec) 
Heartbeat CPU 0 instructions: 90000002 cycles: 177504239 heartbeat IPC: 0.276862 cumulative IPC: 0.249494 (Simulation time: 0 hr 16 min 41 sec) 
Heartbeat CPU 0 instructions: 100000001 cycles: 223079555 heartbeat IPC: 0.219417 cumulative IPC: 0.242837 (Simulation time: 0 hr 17 min 15 sec) 
Finished CPU 0 instructions: 50000000 cycles: 205899649 cumulative IPC: 0.242837 (Simulation time: 0 hr 17 min 15 sec) 

ChampSim completed all CPUs

Region of Interest Statistics

CPU 0 cumulative IPC: 0.242837 instructions: 50000000 cycles: 205899649
L1D TOTAL     ACCESS:   16853107  HIT:   11128800  MISS:    5724307
L1D LOAD      ACCESS:    4567247  HIT:    4184425  MISS:     382822
L1D RFO       ACCESS:    8206620  HIT:    3155036  MISS:    5051584
L1D PREFETCH  ACCESS:    4079240  HIT:    3789339  MISS:     289901
L1D WRITEBACK ACCESS:          0  HIT:          0  MISS:          0
L1D PREFETCH  REQUESTED:    4585079  ISSUED:    4525386  USEFUL:     152471  USELESS:     137609
L1D AVERAGE MISS LATENCY: 490.399 cycles
L1I TOTAL     ACCESS:   13597755  HIT:   12265801  MISS:    1331954
L1I LOAD      ACCESS:   11273140  HIT:   11158762  MISS:     114378
L1I RFO       ACCESS:          0  HIT:          0  MISS:          0
L1I PREFETCH  ACCESS:    2324615  HIT:    1107039  MISS:    1217576
L1I WRITEBACK ACCESS:          0  HIT:          0  MISS:          0
L1I PREFETCH  REQUESTED:    2500796  ISSUED:    2497558  USEFUL:     750402  USELESS:     467080
L1I AVERAGE MISS LATENCY: 50.6711 cycles
L2C TOTAL     ACCESS:   12518774  HIT:    6442807  MISS:    6075967
L2C LOAD      ACCESS:     256264  HIT:      81198  MISS:     175066
L2C RFO       ACCESS:    5049792  HIT:       6483  MISS:    5043309
L2C PREFETCH  ACCESS:    2054861  HIT:    1197424  MISS:     857437
L2C WRITEBACK ACCESS:    5157857  HIT:    5157702  MISS:        155
L2C PREFETCH  REQUESTED:    2469618  ISSUED:    2469256  USEFUL:      32741  USELESS:     821910
L2C AVERAGE MISS LATENCY: 460.323 cycles
LLC TOTAL     ACCESS:   12037850  HIT:    7417265  MISS:    4620585
LLC LOAD      ACCESS:     175029  HIT:     131694  MISS:      43335
LLC RFO       ACCESS:    5043309  HIT:     741417  MISS:    4301892
LLC PREFETCH  ACCESS:    1685880  HIT:    1410522  MISS:     275358
LLC WRITEBACK ACCESS:    5133632  HIT:    5133632  MISS:          0
LLC PREFETCH  REQUESTED:          0  ISSUED:          0  USEFUL:      12388  USELESS:     263030
LLC AVERAGE MISS LATENCY: 573.777 cycles
Major fault: 0 Minor fault: 2817
I-Shadow cache 408 bytes
Touched + WorthPF tables 24576 bytes 
MMA filter 174 bytes 
FNL filter 272 bytes 
TOTAL PREFETCHER STORAGE SIZE: 98134 bytes
CPU 0 L1I next line prefetcher final stats
CPU 0 L1D next line prefetcher final stats

DRAM Statistics
 CHANNEL 0
 RQ ROW_BUFFER_HIT:    1397162  ROW_BUFFER_MISS:    3221777
 DBUS_CONGESTED:    7957275
 WQ ROW_BUFFER_HIT:    1149485  ROW_BUFFER_MISS:    3181449  FULL:       1530

 AVG_CONGESTED_CYCLE: 6

CPU 0 Branch Prediction Accuracy: 99.665% MPKI: 0.78342 Average ROB Occupancy at Mispredict: 119.068

Branch types
NOT_BRANCH: 38305856 76.6117%
BRANCH_DIRECT_JUMP: 384281 0.768562%
BRANCH_INDIRECT: 71949 0.143898%
BRANCH_CONDITIONAL: 9879825 19.7597%
BRANCH_DIRECT_CALL: 650586 1.30117%
BRANCH_INDIRECT_CALL: 28456 0.056912%
BRANCH_RETURN: 679046 1.35809%
BRANCH_OTHER: 0 0%

