Initialize SIGNATURE TABLE
ST_SET: 1
ST_WAY: 256
ST_TAG_BIT: 16
ST_TAG_MASK: ffff

Initialize PATTERN TABLE
PT_SET: 512
PT_WAY: 4
SIG_DELTA_BIT: 7
C_SIG_BIT: 4
C_DELTA_BIT: 4

Initialize PREFETCH FILTER
FILTER_SET: 1024

*** ChampSim Multicore Out-of-Order Simulator ***

Warmup Instructions: 50000000
Simulation Instructions: 50000000
Number of CPUs: 1
LLC sets: 2048
LLC ways: 16
Off-chip DRAM Size: 4096 MB Channels: 1 Width: 64-bit Data Rate: 3200 MT/s

CPU 0 runs /Users/brandon/Documents/CoursesWi22/CSE240C/Homework1/ChampSim/ipc1_public/spec_gobmk_001.champsimtrace.xz
CPU 0 L1I next line prefetcher
CPU 0 L1D next line prefetcher
Heartbeat CPU 0 instructions: 10000003 cycles: 3506975 heartbeat IPC: 2.85146 cumulative IPC: 2.85146 (Simulation time: 0 hr 1 min 26 sec) 
Heartbeat CPU 0 instructions: 20000002 cycles: 6987350 heartbeat IPC: 2.87325 cumulative IPC: 2.86232 (Simulation time: 0 hr 2 min 50 sec) 
Heartbeat CPU 0 instructions: 30000002 cycles: 10506249 heartbeat IPC: 2.8418 cumulative IPC: 2.85544 (Simulation time: 0 hr 4 min 13 sec) 
Heartbeat CPU 0 instructions: 40000001 cycles: 14025239 heartbeat IPC: 2.84172 cumulative IPC: 2.852 (Simulation time: 0 hr 5 min 35 sec) 
Heartbeat CPU 0 instructions: 50000001 cycles: 17565484 heartbeat IPC: 2.82466 cumulative IPC: 2.84649 (Simulation time: 0 hr 6 min 59 sec) 

Warmup complete CPU 0 instructions: 50000001 cycles: 17565484 (Simulation time: 0 hr 6 min 59 sec) 

Heartbeat CPU 0 instructions: 60000000 cycles: 26382942 heartbeat IPC: 1.13411 cumulative IPC: 1.13411 (Simulation time: 0 hr 8 min 1 sec) 
Heartbeat CPU 0 instructions: 70000002 cycles: 34852014 heartbeat IPC: 1.18077 cumulative IPC: 1.15697 (Simulation time: 0 hr 9 min 3 sec) 
Heartbeat CPU 0 instructions: 80000003 cycles: 43732252 heartbeat IPC: 1.1261 cumulative IPC: 1.14649 (Simulation time: 0 hr 10 min 6 sec) 
Heartbeat CPU 0 instructions: 90000001 cycles: 52270456 heartbeat IPC: 1.17121 cumulative IPC: 1.15257 (Simulation time: 0 hr 11 min 10 sec) 
Heartbeat CPU 0 instructions: 100000003 cycles: 61126859 heartbeat IPC: 1.12913 cumulative IPC: 1.14781 (Simulation time: 0 hr 12 min 13 sec) 
Finished CPU 0 instructions: 50000002 cycles: 43561375 cumulative IPC: 1.14781 (Simulation time: 0 hr 12 min 13 sec) 

ChampSim completed all CPUs

Region of Interest Statistics

CPU 0 cumulative IPC: 1.14781 instructions: 50000002 cycles: 43561375
L1D TOTAL     ACCESS:   18005717  HIT:   17626173  MISS:     379544
L1D LOAD      ACCESS:    7221580  HIT:    7086611  MISS:     134969
L1D RFO       ACCESS:    3701730  HIT:    3597189  MISS:     104541
L1D PREFETCH  ACCESS:    7082407  HIT:    6942373  MISS:     140034
L1D WRITEBACK ACCESS:          0  HIT:          0  MISS:          0
L1D PREFETCH  REQUESTED:    7226875  ISSUED:    7144090  USEFUL:      45329  USELESS:      94711
L1D AVERAGE MISS LATENCY: 32.8443 cycles
L1I TOTAL     ACCESS:   12384756  HIT:   11173109  MISS:    1211647
L1I LOAD      ACCESS:    8956545  HIT:    8845086  MISS:     111459
L1I RFO       ACCESS:          0  HIT:          0  MISS:          0
L1I PREFETCH  ACCESS:    3428211  HIT:    2328023  MISS:    1100188
L1I WRITEBACK ACCESS:          0  HIT:          0  MISS:          0
L1I PREFETCH  REQUESTED:    3538506  ISSUED:    3538470  USEFUL:     603894  USELESS:     496282
L1I AVERAGE MISS LATENCY: 15.1272 cycles
L2C TOTAL     ACCESS:    2401840  HIT:    2275766  MISS:     126074
L2C LOAD      ACCESS:     204779  HIT:     169323  MISS:      35456
L2C RFO       ACCESS:     104199  HIT:      70583  MISS:      33616
L2C PREFETCH  ACCESS:    1953563  HIT:    1896571  MISS:      56992
L2C WRITEBACK ACCESS:     139299  HIT:     139289  MISS:         10
L2C PREFETCH  REQUESTED:    1842793  ISSUED:    1842583  USEFUL:       5075  USELESS:      52339
L2C AVERAGE MISS LATENCY: 62.6935 cycles
LLC TOTAL     ACCESS:     344230  HIT:     306748  MISS:      37482
LLC LOAD      ACCESS:      35453  HIT:      27340  MISS:       8113
LLC RFO       ACCESS:      33616  HIT:      28095  MISS:       5521
LLC PREFETCH  ACCESS:     231004  HIT:     207411  MISS:      23593
LLC WRITEBACK ACCESS:      44157  HIT:      43902  MISS:        255
LLC PREFETCH  REQUESTED:          0  ISSUED:          0  USEFUL:       1531  USELESS:      20175
LLC AVERAGE MISS LATENCY: 179.386 cycles
Major fault: 0 Minor fault: 4157
I-Shadow cache 408 bytes
Touched + WorthPF tables 24576 bytes 
MMA filter 174 bytes 
FNL filter 272 bytes 
TOTAL PREFETCHER STORAGE SIZE: 98134 bytes
CPU 0 L1I next line prefetcher final stats
CPU 0 L1D next line prefetcher final stats

DRAM Statistics
 CHANNEL 0
 RQ ROW_BUFFER_HIT:       3838  ROW_BUFFER_MISS:      33389
 DBUS_CONGESTED:      23048
 WQ ROW_BUFFER_HIT:       1358  ROW_BUFFER_MISS:      14459  FULL:          0

 AVG_CONGESTED_CYCLE: 4

CPU 0 Branch Prediction Accuracy: 94.7729% MPKI: 9.72684 Average ROB Occupancy at Mispredict: 53.6077

Branch types
NOT_BRANCH: 40695383 81.3908%
BRANCH_DIRECT_JUMP: 422107 0.844214%
BRANCH_INDIRECT: 65 0.00013%
BRANCH_CONDITIONAL: 8105005 16.21%
BRANCH_DIRECT_CALL: 374913 0.749826%
BRANCH_INDIRECT_CALL: 13657 0.027314%
BRANCH_RETURN: 388556 0.777112%
BRANCH_OTHER: 0 0%

