Initialize SIGNATURE TABLE
ST_SET: 1
ST_WAY: 256
ST_TAG_BIT: 16
ST_TAG_MASK: ffff

Initialize PATTERN TABLE
PT_SET: 512
PT_WAY: 4
SIG_DELTA_BIT: 7
C_SIG_BIT: 4
C_DELTA_BIT: 4

Initialize PREFETCH FILTER
FILTER_SET: 1024

*** ChampSim Multicore Out-of-Order Simulator ***

Warmup Instructions: 50000000
Simulation Instructions: 50000000
Number of CPUs: 1
LLC sets: 2048
LLC ways: 16
Off-chip DRAM Size: 4096 MB Channels: 1 Width: 64-bit Data Rate: 3200 MT/s

CPU 0 runs /Users/brandon/Documents/CoursesWi22/CSE240C/Homework1/ChampSim/ipc1_public/spec_x264_001.champsimtrace.xz
CPU 0 L1I next line prefetcher
CPU 0 L1D next line prefetcher
Heartbeat CPU 0 instructions: 10000002 cycles: 3059939 heartbeat IPC: 3.26804 cumulative IPC: 3.26804 (Simulation time: 0 hr 1 min 10 sec) 
Heartbeat CPU 0 instructions: 20000002 cycles: 6110120 heartbeat IPC: 3.27849 cumulative IPC: 3.27326 (Simulation time: 0 hr 2 min 15 sec) 
Heartbeat CPU 0 instructions: 30000002 cycles: 9145831 heartbeat IPC: 3.29412 cumulative IPC: 3.28018 (Simulation time: 0 hr 3 min 21 sec) 
Heartbeat CPU 0 instructions: 40000000 cycles: 12190456 heartbeat IPC: 3.28448 cumulative IPC: 3.28126 (Simulation time: 0 hr 4 min 27 sec) 
Heartbeat CPU 0 instructions: 50000000 cycles: 15233456 heartbeat IPC: 3.28623 cumulative IPC: 3.28225 (Simulation time: 0 hr 5 min 33 sec) 

Warmup complete CPU 0 instructions: 50000004 cycles: 15233457 (Simulation time: 0 hr 5 min 33 sec) 

Heartbeat CPU 0 instructions: 60000002 cycles: 21157744 heartbeat IPC: 1.68797 cumulative IPC: 1.68797 (Simulation time: 0 hr 6 min 9 sec) 
Heartbeat CPU 0 instructions: 70000000 cycles: 27065757 heartbeat IPC: 1.69262 cumulative IPC: 1.69029 (Simulation time: 0 hr 6 min 46 sec) 
Heartbeat CPU 0 instructions: 80000003 cycles: 33116973 heartbeat IPC: 1.65256 cumulative IPC: 1.67752 (Simulation time: 0 hr 7 min 22 sec) 
Heartbeat CPU 0 instructions: 90000002 cycles: 39149907 heartbeat IPC: 1.65757 cumulative IPC: 1.67249 (Simulation time: 0 hr 7 min 59 sec) 
Heartbeat CPU 0 instructions: 100000002 cycles: 45043116 heartbeat IPC: 1.69687 cumulative IPC: 1.67731 (Simulation time: 0 hr 8 min 38 sec) 
Finished CPU 0 instructions: 50000002 cycles: 29809660 cumulative IPC: 1.67731 (Simulation time: 0 hr 8 min 38 sec) 

ChampSim completed all CPUs

Region of Interest Statistics

CPU 0 cumulative IPC: 1.67731 instructions: 50000002 cycles: 29809660
L1D TOTAL     ACCESS:   12967781  HIT:   12806722  MISS:     161059
L1D LOAD      ACCESS:    5094841  HIT:    5039785  MISS:      55056
L1D RFO       ACCESS:    2882878  HIT:    2848521  MISS:      34357
L1D PREFETCH  ACCESS:    4990062  HIT:    4918416  MISS:      71646
L1D WRITEBACK ACCESS:          0  HIT:          0  MISS:          0
L1D PREFETCH  REQUESTED:    5111493  ISSUED:    5044300  USEFUL:      25792  USELESS:      45663
L1D AVERAGE MISS LATENCY: 39.4323 cycles
L1I TOTAL     ACCESS:    8564596  HIT:    8198718  MISS:     365878
L1I LOAD      ACCESS:    8040185  HIT:    8035560  MISS:       4625
L1I RFO       ACCESS:          0  HIT:          0  MISS:          0
L1I PREFETCH  ACCESS:     524411  HIT:     163158  MISS:     361253
L1I WRITEBACK ACCESS:          0  HIT:          0  MISS:          0
L1I PREFETCH  REQUESTED:     536293  ISSUED:     536293  USEFUL:     295528  USELESS:      65764
L1I AVERAGE MISS LATENCY: 14.7871 cycles
L2C TOTAL     ACCESS:     748977  HIT:     709718  MISS:      39259
L2C LOAD      ACCESS:      57575  HIT:      52069  MISS:       5506
L2C RFO       ACCESS:      34157  HIT:      22096  MISS:      12061
L2C PREFETCH  ACCESS:     614106  HIT:     592491  MISS:      21615
L2C WRITEBACK ACCESS:      43139  HIT:      43062  MISS:         77
L2C PREFETCH  REQUESTED:     596446  ISSUED:     594749  USEFUL:       8982  USELESS:      12865
L2C AVERAGE MISS LATENCY: 100.901 cycles
LLC TOTAL     ACCESS:     138635  HIT:     109406  MISS:      29229
LLC LOAD      ACCESS:       5506  HIT:       3433  MISS:       2073
LLC RFO       ACCESS:      12061  HIT:        442  MISS:      11619
LLC PREFETCH  ACCESS:     107509  HIT:      92065  MISS:      15444
LLC WRITEBACK ACCESS:      13559  HIT:      13466  MISS:         93
LLC PREFETCH  REQUESTED:          0  ISSUED:          0  USEFUL:       1796  USELESS:      14164
LLC AVERAGE MISS LATENCY: 162.505 cycles
Major fault: 0 Minor fault: 1284
I-Shadow cache 408 bytes
Touched + WorthPF tables 24576 bytes 
MMA filter 174 bytes 
FNL filter 272 bytes 
TOTAL PREFETCHER STORAGE SIZE: 98134 bytes
CPU 0 L1I next line prefetcher final stats
CPU 0 L1D next line prefetcher final stats

DRAM Statistics
 CHANNEL 0
 RQ ROW_BUFFER_HIT:      10115  ROW_BUFFER_MISS:      19021
 DBUS_CONGESTED:      12823
 WQ ROW_BUFFER_HIT:       2960  ROW_BUFFER_MISS:       9749  FULL:          0

 AVG_CONGESTED_CYCLE: 6

CPU 0 Branch Prediction Accuracy: 97.1633% MPKI: 1.73704 Average ROB Occupancy at Mispredict: 42.8184

Branch types
NOT_BRANCH: 46937921 93.8758%
BRANCH_DIRECT_JUMP: 170816 0.341632%
BRANCH_INDIRECT: 0 0%
BRANCH_CONDITIONAL: 2532774 5.06555%
BRANCH_DIRECT_CALL: 114227 0.228454%
BRANCH_INDIRECT_CALL: 64863 0.129726%
BRANCH_RETURN: 179089 0.358178%
BRANCH_OTHER: 0 0%

