Initialize SIGNATURE TABLE
ST_SET: 1
ST_WAY: 256
ST_TAG_BIT: 16
ST_TAG_MASK: ffff

Initialize PATTERN TABLE
PT_SET: 512
PT_WAY: 4
SIG_DELTA_BIT: 7
C_SIG_BIT: 4
C_DELTA_BIT: 4

Initialize PREFETCH FILTER
FILTER_SET: 1024

*** ChampSim Multicore Out-of-Order Simulator ***

Warmup Instructions: 50000000
Simulation Instructions: 50000000
Number of CPUs: 1
LLC sets: 2048
LLC ways: 16
Off-chip DRAM Size: 4096 MB Channels: 1 Width: 64-bit Data Rate: 3200 MT/s

CPU 0 runs /Users/brandon/Documents/CoursesWi22/CSE240C/Homework1/ChampSim/ipc1_public/client_002.champsimtrace.xz
L1I D-JOLT instruction prefetcher has been constructed!
CPU 0 L1D next line prefetcher
Heartbeat CPU 0 instructions: 10000000 cycles: 3404658 heartbeat IPC: 2.93715 cumulative IPC: 2.93715 (Simulation time: 0 hr 1 min 2 sec) 
Heartbeat CPU 0 instructions: 20000002 cycles: 6859894 heartbeat IPC: 2.89416 cumulative IPC: 2.9155 (Simulation time: 0 hr 2 min 19 sec) 
Heartbeat CPU 0 instructions: 30000001 cycles: 10292438 heartbeat IPC: 2.91329 cumulative IPC: 2.91476 (Simulation time: 0 hr 3 min 36 sec) 
Heartbeat CPU 0 instructions: 40000002 cycles: 13724837 heartbeat IPC: 2.91341 cumulative IPC: 2.91442 (Simulation time: 0 hr 4 min 54 sec) 
Heartbeat CPU 0 instructions: 50000002 cycles: 17165432 heartbeat IPC: 2.90647 cumulative IPC: 2.91283 (Simulation time: 0 hr 6 min 12 sec) 

Warmup complete CPU 0 instructions: 50000002 cycles: 17165432 (Simulation time: 0 hr 6 min 12 sec) 

Heartbeat CPU 0 instructions: 60000002 cycles: 23082409 heartbeat IPC: 1.69005 cumulative IPC: 1.69005 (Simulation time: 0 hr 7 min 26 sec) 
Heartbeat CPU 0 instructions: 70000001 cycles: 29050104 heartbeat IPC: 1.67569 cumulative IPC: 1.68284 (Simulation time: 0 hr 8 min 43 sec) 
Heartbeat CPU 0 instructions: 80000002 cycles: 34910611 heartbeat IPC: 1.70634 cumulative IPC: 1.6906 (Simulation time: 0 hr 10 min 0 sec) 
Heartbeat CPU 0 instructions: 90000000 cycles: 41348238 heartbeat IPC: 1.55337 cumulative IPC: 1.65407 (Simulation time: 0 hr 11 min 13 sec) 
Heartbeat CPU 0 instructions: 100000003 cycles: 47261071 heartbeat IPC: 1.69124 cumulative IPC: 1.66137 (Simulation time: 0 hr 12 min 20 sec) 
Finished CPU 0 instructions: 50000001 cycles: 30095639 cumulative IPC: 1.66137 (Simulation time: 0 hr 12 min 20 sec) 

ChampSim completed all CPUs

Region of Interest Statistics

CPU 0 cumulative IPC: 1.66137 instructions: 50000001 cycles: 30095639
L1D TOTAL     ACCESS:   19058005  HIT:   18718811  MISS:     339194
L1D LOAD      ACCESS:    6450734  HIT:    6333493  MISS:     117241
L1D RFO       ACCESS:    6416922  HIT:    6326990  MISS:      89932
L1D PREFETCH  ACCESS:    6190349  HIT:    6058328  MISS:     132021
L1D WRITEBACK ACCESS:          0  HIT:          0  MISS:          0
L1D PREFETCH  REQUESTED:    6461194  ISSUED:    6260305  USEFUL:      53281  USELESS:      78882
L1D AVERAGE MISS LATENCY: 49.3471 cycles
L1I TOTAL     ACCESS:   16172103  HIT:   14489152  MISS:    1682951
L1I LOAD      ACCESS:    9556714  HIT:    9527443  MISS:      29271
L1I RFO       ACCESS:          0  HIT:          0  MISS:          0
L1I PREFETCH  ACCESS:    6615389  HIT:    4961709  MISS:    1653680
L1I WRITEBACK ACCESS:          0  HIT:          0  MISS:          0
L1I PREFETCH  REQUESTED:    6974859  ISSUED:    6803545  USEFUL:     919531  USELESS:     734135
L1I AVERAGE MISS LATENCY: 16.7179 cycles
L2C TOTAL     ACCESS:    2847350  HIT:    2592203  MISS:     255147
L2C LOAD      ACCESS:     132062  HIT:      91265  MISS:      40797
L2C RFO       ACCESS:      88833  HIT:      22203  MISS:      66630
L2C PREFETCH  ACCESS:    2500956  HIT:    2353631  MISS:     147325
L2C WRITEBACK ACCESS:     125499  HIT:     125104  MISS:        395
L2C PREFETCH  REQUESTED:    1568387  ISSUED:    1568002  USEFUL:      11318  USELESS:     135382
L2C AVERAGE MISS LATENCY: 62.6206 cycles
LLC TOTAL     ACCESS:     693266  HIT:     624153  MISS:      69113
LLC LOAD      ACCESS:      40792  HIT:      34745  MISS:       6047
LLC RFO       ACCESS:      66619  HIT:      36844  MISS:      29775
LLC PREFETCH  ACCESS:     500794  HIT:     467776  MISS:      33018
LLC WRITEBACK ACCESS:      85061  HIT:      84788  MISS:        273
LLC PREFETCH  REQUESTED:          0  ISSUED:          0  USEFUL:       5758  USELESS:      27178
LLC AVERAGE MISS LATENCY: 176.465 cycles
Major fault: 0 Minor fault: 3093
CPU 0 L1D next line prefetcher final stats

DRAM Statistics
 CHANNEL 0
 RQ ROW_BUFFER_HIT:      22766  ROW_BUFFER_MISS:      46073
 DBUS_CONGESTED:      41800
 WQ ROW_BUFFER_HIT:       8872  ROW_BUFFER_MISS:      27738  FULL:          0

 AVG_CONGESTED_CYCLE: 6

CPU 0 Branch Prediction Accuracy: 99.2117% MPKI: 1.49752 Average ROB Occupancy at Mispredict: 120.234

Branch types
NOT_BRANCH: 40501616 81.0032%
BRANCH_DIRECT_JUMP: 517397 1.03479%
BRANCH_INDIRECT: 112348 0.224696%
BRANCH_CONDITIONAL: 6698737 13.3975%
BRANCH_DIRECT_CALL: 960974 1.92195%
BRANCH_INDIRECT_CALL: 123707 0.247414%
BRANCH_RETURN: 1084929 2.16986%
BRANCH_OTHER: 0 0%

