Initialize SIGNATURE TABLE
ST_SET: 1
ST_WAY: 256
ST_TAG_BIT: 16
ST_TAG_MASK: ffff

Initialize PATTERN TABLE
PT_SET: 512
PT_WAY: 4
SIG_DELTA_BIT: 7
C_SIG_BIT: 4
C_DELTA_BIT: 4

Initialize PREFETCH FILTER
FILTER_SET: 1024

*** ChampSim Multicore Out-of-Order Simulator ***

Warmup Instructions: 50000000
Simulation Instructions: 50000000
Number of CPUs: 1
LLC sets: 2048
LLC ways: 16
Off-chip DRAM Size: 4096 MB Channels: 1 Width: 64-bit Data Rate: 3200 MT/s

CPU 0 runs /Users/brandon/Documents/CoursesWi22/CSE240C/Homework1/ChampSim/ipc1_public/client_003.champsimtrace.xz
L1I D-JOLT instruction prefetcher has been constructed!
CPU 0 L1D next line prefetcher
Heartbeat CPU 0 instructions: 10000000 cycles: 3478450 heartbeat IPC: 2.87484 cumulative IPC: 2.87484 (Simulation time: 0 hr 1 min 4 sec) 
Heartbeat CPU 0 instructions: 20000002 cycles: 6932635 heartbeat IPC: 2.89504 cumulative IPC: 2.88491 (Simulation time: 0 hr 2 min 25 sec) 
Heartbeat CPU 0 instructions: 30000003 cycles: 10493553 heartbeat IPC: 2.80826 cumulative IPC: 2.8589 (Simulation time: 0 hr 3 min 49 sec) 
Heartbeat CPU 0 instructions: 40000001 cycles: 14110034 heartbeat IPC: 2.76512 cumulative IPC: 2.83486 (Simulation time: 0 hr 5 min 16 sec) 
Heartbeat CPU 0 instructions: 50000003 cycles: 17655059 heartbeat IPC: 2.82086 cumulative IPC: 2.83205 (Simulation time: 0 hr 6 min 38 sec) 

Warmup complete CPU 0 instructions: 50000003 cycles: 17655059 (Simulation time: 0 hr 6 min 38 sec) 

Heartbeat CPU 0 instructions: 60000002 cycles: 24020493 heartbeat IPC: 1.57098 cumulative IPC: 1.57098 (Simulation time: 0 hr 7 min 59 sec) 
Heartbeat CPU 0 instructions: 70000001 cycles: 30111960 heartbeat IPC: 1.64164 cumulative IPC: 1.60554 (Simulation time: 0 hr 9 min 22 sec) 
Heartbeat CPU 0 instructions: 80000001 cycles: 37141370 heartbeat IPC: 1.42259 cumulative IPC: 1.53954 (Simulation time: 0 hr 10 min 38 sec) 
Heartbeat CPU 0 instructions: 90000000 cycles: 45908532 heartbeat IPC: 1.14062 cumulative IPC: 1.41576 (Simulation time: 0 hr 11 min 34 sec) 
Heartbeat CPU 0 instructions: 100000003 cycles: 56775694 heartbeat IPC: 0.920204 cumulative IPC: 1.2781 (Simulation time: 0 hr 12 min 30 sec) 
Finished CPU 0 instructions: 50000000 cycles: 39120635 cumulative IPC: 1.2781 (Simulation time: 0 hr 12 min 30 sec) 

ChampSim completed all CPUs

Region of Interest Statistics

CPU 0 cumulative IPC: 1.2781 instructions: 50000000 cycles: 39120635
L1D TOTAL     ACCESS:   17661521  HIT:   17165577  MISS:     495944
L1D LOAD      ACCESS:    6041688  HIT:    5918730  MISS:     122958
L1D RFO       ACCESS:    5946193  HIT:    5711733  MISS:     234460
L1D PREFETCH  ACCESS:    5673640  HIT:    5535114  MISS:     138526
L1D WRITEBACK ACCESS:          0  HIT:          0  MISS:          0
L1D PREFETCH  REQUESTED:    6083201  ISSUED:    5942207  USEFUL:      70653  USELESS:      67920
L1D AVERAGE MISS LATENCY: 122.243 cycles
L1I TOTAL     ACCESS:   15723950  HIT:   13897673  MISS:    1826277
L1I LOAD      ACCESS:    9489505  HIT:    9397693  MISS:      91812
L1I RFO       ACCESS:          0  HIT:          0  MISS:          0
L1I PREFETCH  ACCESS:    6234445  HIT:    4499980  MISS:    1734465
L1I WRITEBACK ACCESS:          0  HIT:          0  MISS:          0
L1I PREFETCH  REQUESTED:    6655812  ISSUED:    6351394  USEFUL:     731443  USELESS:    1003117
L1I AVERAGE MISS LATENCY: 17.0012 cycles
L2C TOTAL     ACCESS:    3328071  HIT:    2920461  MISS:     407610
L2C LOAD      ACCESS:     179708  HIT:     127874  MISS:      51834
L2C RFO       ACCESS:     232333  HIT:      25147  MISS:     207186
L2C PREFETCH  ACCESS:    2646727  HIT:    2499325  MISS:     147402
L2C WRITEBACK ACCESS:     269303  HIT:     268115  MISS:       1188
L2C PREFETCH  REQUESTED:    1656153  ISSUED:    1655949  USEFUL:      16158  USELESS:     131109
L2C AVERAGE MISS LATENCY: 159.845 cycles
LLC TOTAL     ACCESS:    1020449  HIT:     729929  MISS:     290520
LLC LOAD      ACCESS:      51803  HIT:      35842  MISS:      15961
LLC RFO       ACCESS:     207182  HIT:      34145  MISS:     173037
LLC PREFETCH  ACCESS:     536487  HIT:     435368  MISS:     101119
LLC WRITEBACK ACCESS:     224977  HIT:     224574  MISS:        403
LLC PREFETCH  REQUESTED:          0  ISSUED:          0  USEFUL:      12519  USELESS:      88598
LLC AVERAGE MISS LATENCY: 226.711 cycles
Major fault: 0 Minor fault: 5044
CPU 0 L1D next line prefetcher final stats

DRAM Statistics
 CHANNEL 0
 RQ ROW_BUFFER_HIT:     101649  ROW_BUFFER_MISS:     188465
 DBUS_CONGESTED:     258416
 WQ ROW_BUFFER_HIT:      58295  ROW_BUFFER_MISS:     120972  FULL:          0

 AVG_CONGESTED_CYCLE: 6

CPU 0 Branch Prediction Accuracy: 98.6631% MPKI: 2.66884 Average ROB Occupancy at Mispredict: 76.5204

Branch types
NOT_BRANCH: 40018786 80.0376%
BRANCH_DIRECT_JUMP: 370861 0.741722%
BRANCH_INDIRECT: 83253 0.166506%
BRANCH_CONDITIONAL: 7877437 15.7549%
BRANCH_DIRECT_CALL: 722316 1.44463%
BRANCH_INDIRECT_CALL: 101901 0.203802%
BRANCH_RETURN: 825355 1.65071%
BRANCH_OTHER: 0 0%

