Initialize SIGNATURE TABLE
ST_SET: 1
ST_WAY: 256
ST_TAG_BIT: 16
ST_TAG_MASK: ffff

Initialize PATTERN TABLE
PT_SET: 512
PT_WAY: 4
SIG_DELTA_BIT: 7
C_SIG_BIT: 4
C_DELTA_BIT: 4

Initialize PREFETCH FILTER
FILTER_SET: 1024

*** ChampSim Multicore Out-of-Order Simulator ***

Warmup Instructions: 50000000
Simulation Instructions: 50000000
Number of CPUs: 1
LLC sets: 2048
LLC ways: 16
Off-chip DRAM Size: 4096 MB Channels: 1 Width: 64-bit Data Rate: 3200 MT/s

CPU 0 runs /Users/brandon/Documents/CoursesWi22/CSE240C/Homework1/ChampSim/ipc1_public/server_027.champsimtrace.xz
L1I D-JOLT instruction prefetcher has been constructed!
CPU 0 L1D next line prefetcher
Heartbeat CPU 0 instructions: 10000001 cycles: 3523943 heartbeat IPC: 2.83773 cumulative IPC: 2.83773 (Simulation time: 0 hr 1 min 27 sec) 
Heartbeat CPU 0 instructions: 20000001 cycles: 7053049 heartbeat IPC: 2.83358 cumulative IPC: 2.83565 (Simulation time: 0 hr 2 min 59 sec) 
Heartbeat CPU 0 instructions: 30000002 cycles: 10577882 heartbeat IPC: 2.83701 cumulative IPC: 2.83611 (Simulation time: 0 hr 4 min 32 sec) 
Heartbeat CPU 0 instructions: 40000000 cycles: 14108724 heartbeat IPC: 2.83219 cumulative IPC: 2.83513 (Simulation time: 0 hr 6 min 6 sec) 
Heartbeat CPU 0 instructions: 50000001 cycles: 17632805 heartbeat IPC: 2.83762 cumulative IPC: 2.83562 (Simulation time: 0 hr 7 min 40 sec) 

Warmup complete CPU 0 instructions: 50000001 cycles: 17632805 (Simulation time: 0 hr 7 min 40 sec) 

Heartbeat CPU 0 instructions: 60000002 cycles: 24453569 heartbeat IPC: 1.46611 cumulative IPC: 1.46611 (Simulation time: 0 hr 9 min 13 sec) 
Heartbeat CPU 0 instructions: 70000003 cycles: 31226194 heartbeat IPC: 1.47653 cumulative IPC: 1.4713 (Simulation time: 0 hr 10 min 50 sec) 
Heartbeat CPU 0 instructions: 80000002 cycles: 38012803 heartbeat IPC: 1.47349 cumulative IPC: 1.47203 (Simulation time: 0 hr 12 min 27 sec) 
Heartbeat CPU 0 instructions: 90000001 cycles: 44882892 heartbeat IPC: 1.45559 cumulative IPC: 1.46789 (Simulation time: 0 hr 13 min 59 sec) 
Heartbeat CPU 0 instructions: 100000002 cycles: 51633097 heartbeat IPC: 1.48144 cumulative IPC: 1.47058 (Simulation time: 0 hr 15 min 31 sec) 
Finished CPU 0 instructions: 50000001 cycles: 34000292 cumulative IPC: 1.47058 (Simulation time: 0 hr 15 min 31 sec) 

ChampSim completed all CPUs

Region of Interest Statistics

CPU 0 cumulative IPC: 1.47058 instructions: 50000001 cycles: 34000292
L1D TOTAL     ACCESS:   19874454  HIT:   18272787  MISS:    1601667
L1D LOAD      ACCESS:    6938252  HIT:    6246272  MISS:     691980
L1D RFO       ACCESS:    6284734  HIT:    5999234  MISS:     285500
L1D PREFETCH  ACCESS:    6651468  HIT:    6027281  MISS:     624187
L1D WRITEBACK ACCESS:          0  HIT:          0  MISS:          0
L1D PREFETCH  REQUESTED:    6985739  ISSUED:    6857911  USEFUL:     149490  USELESS:     474708
L1D AVERAGE MISS LATENCY: 23.9705 cycles
L1I TOTAL     ACCESS:   15893150  HIT:   12598087  MISS:    3295063
L1I LOAD      ACCESS:    9490348  HIT:    9440089  MISS:      50259
L1I RFO       ACCESS:          0  HIT:          0  MISS:          0
L1I PREFETCH  ACCESS:    6402802  HIT:    3157998  MISS:    3244804
L1I WRITEBACK ACCESS:          0  HIT:          0  MISS:          0
L1I PREFETCH  REQUESTED:    6858462  ISSUED:    6766795  USEFUL:    2762648  USELESS:     482185
L1I AVERAGE MISS LATENCY: 19.6871 cycles
L2C TOTAL     ACCESS:    6757597  HIT:    5882884  MISS:     874713
L2C LOAD      ACCESS:     703268  HIT:     567735  MISS:     135533
L2C RFO       ACCESS:     283757  HIT:     183824  MISS:      99933
L2C PREFETCH  ACCESS:    5211335  HIT:    4575797  MISS:     635538
L2C WRITEBACK ACCESS:     559237  HIT:     555528  MISS:       3709
L2C PREFETCH  REQUESTED:    4304846  ISSUED:    4297789  USEFUL:      12093  USELESS:     623187
L2C AVERAGE MISS LATENCY: 37.3761 cycles
LLC TOTAL     ACCESS:    2287906  HIT:    2253032  MISS:      34874
LLC LOAD      ACCESS:     135404  HIT:     131833  MISS:       3571
LLC RFO       ACCESS:      99930  HIT:      86006  MISS:      13924
LLC PREFETCH  ACCESS:    1886672  HIT:    1869476  MISS:      17196
LLC WRITEBACK ACCESS:     165900  HIT:     165717  MISS:        183
LLC PREFETCH  REQUESTED:          0  ISSUED:          0  USEFUL:       1258  USELESS:      15178
LLC AVERAGE MISS LATENCY: 186.294 cycles
Major fault: 0 Minor fault: 2484
CPU 0 L1D next line prefetcher final stats

DRAM Statistics
 CHANNEL 0
 RQ ROW_BUFFER_HIT:      11296  ROW_BUFFER_MISS:      23391
 DBUS_CONGESTED:      23178
 WQ ROW_BUFFER_HIT:       1753  ROW_BUFFER_MISS:      14896  FULL:          0

 AVG_CONGESTED_CYCLE: 6

CPU 0 Branch Prediction Accuracy: 99.8082% MPKI: 0.35064 Average ROB Occupancy at Mispredict: 189.264

Branch types
NOT_BRANCH: 40857505 81.715%
BRANCH_DIRECT_JUMP: 526635 1.05327%
BRANCH_INDIRECT: 205902 0.411804%
BRANCH_CONDITIONAL: 6184049 12.3681%
BRANCH_DIRECT_CALL: 938467 1.87693%
BRANCH_INDIRECT_CALL: 174486 0.348972%
BRANCH_RETURN: 1112959 2.22592%
BRANCH_OTHER: 0 0%

