Initialize SIGNATURE TABLE
ST_SET: 1
ST_WAY: 256
ST_TAG_BIT: 16
ST_TAG_MASK: ffff

Initialize PATTERN TABLE
PT_SET: 512
PT_WAY: 4
SIG_DELTA_BIT: 7
C_SIG_BIT: 4
C_DELTA_BIT: 4

Initialize PREFETCH FILTER
FILTER_SET: 1024

*** ChampSim Multicore Out-of-Order Simulator ***

Warmup Instructions: 50000000
Simulation Instructions: 50000000
Number of CPUs: 1
LLC sets: 2048
LLC ways: 16
Off-chip DRAM Size: 4096 MB Channels: 1 Width: 64-bit Data Rate: 3200 MT/s

CPU 0 runs /Users/brandon/Documents/CoursesWi22/CSE240C/Homework1/ChampSim/ipc1_public/server_031.champsimtrace.xz
L1I D-JOLT instruction prefetcher has been constructed!
CPU 0 L1D next line prefetcher
Heartbeat CPU 0 instructions: 10000003 cycles: 3521738 heartbeat IPC: 2.83951 cumulative IPC: 2.83951 (Simulation time: 0 hr 1 min 29 sec) 
Heartbeat CPU 0 instructions: 20000002 cycles: 7043302 heartbeat IPC: 2.83965 cumulative IPC: 2.83958 (Simulation time: 0 hr 3 min 3 sec) 
Heartbeat CPU 0 instructions: 30000002 cycles: 10564174 heartbeat IPC: 2.84021 cumulative IPC: 2.83979 (Simulation time: 0 hr 4 min 38 sec) 
Heartbeat CPU 0 instructions: 40000003 cycles: 14080220 heartbeat IPC: 2.8441 cumulative IPC: 2.84086 (Simulation time: 0 hr 6 min 13 sec) 
Heartbeat CPU 0 instructions: 50000001 cycles: 17598789 heartbeat IPC: 2.84206 cumulative IPC: 2.8411 (Simulation time: 0 hr 7 min 49 sec) 

Warmup complete CPU 0 instructions: 50000001 cycles: 17598789 (Simulation time: 0 hr 7 min 49 sec) 

Heartbeat CPU 0 instructions: 60000001 cycles: 25179815 heartbeat IPC: 1.31908 cumulative IPC: 1.31908 (Simulation time: 0 hr 9 min 27 sec) 
Heartbeat CPU 0 instructions: 70000002 cycles: 32812372 heartbeat IPC: 1.31018 cumulative IPC: 1.31461 (Simulation time: 0 hr 11 min 9 sec) 
*** Reached end of trace for Core: 0 Repeating trace: /Users/brandon/Documents/CoursesWi22/CSE240C/Homework1/ChampSim/ipc1_public/server_031.champsimtrace.xz
Heartbeat CPU 0 instructions: 80000000 cycles: 40297212 heartbeat IPC: 1.33603 cumulative IPC: 1.32168 (Simulation time: 0 hr 12 min 51 sec) 
Heartbeat CPU 0 instructions: 90000003 cycles: 47836447 heartbeat IPC: 1.32639 cumulative IPC: 1.32285 (Simulation time: 0 hr 14 min 29 sec) 
Heartbeat CPU 0 instructions: 100000000 cycles: 55330610 heartbeat IPC: 1.33437 cumulative IPC: 1.32514 (Simulation time: 0 hr 15 min 50 sec) 
Finished CPU 0 instructions: 50000000 cycles: 37731823 cumulative IPC: 1.32514 (Simulation time: 0 hr 15 min 50 sec) 

ChampSim completed all CPUs

Region of Interest Statistics

CPU 0 cumulative IPC: 1.32514 instructions: 50000000 cycles: 37731823
L1D TOTAL     ACCESS:   19478307  HIT:   17573922  MISS:    1904385
L1D LOAD      ACCESS:    6753294  HIT:    5879038  MISS:     874256
L1D RFO       ACCESS:    6318078  HIT:    6026097  MISS:     291981
L1D PREFETCH  ACCESS:    6406935  HIT:    5668787  MISS:     738148
L1D WRITEBACK ACCESS:          0  HIT:          0  MISS:          0
L1D PREFETCH  REQUESTED:    6816658  ISSUED:    6700308  USEFUL:     172721  USELESS:     565432
L1D AVERAGE MISS LATENCY: 23.7006 cycles
L1I TOTAL     ACCESS:   17135663  HIT:   13577625  MISS:    3558038
L1I LOAD      ACCESS:    9741834  HIT:    9695697  MISS:      46137
L1I RFO       ACCESS:          0  HIT:          0  MISS:          0
L1I PREFETCH  ACCESS:    7393829  HIT:    3881928  MISS:    3511901
L1I WRITEBACK ACCESS:          0  HIT:          0  MISS:          0
L1I PREFETCH  REQUESTED:    8013678  ISSUED:    7875440  USEFUL:    3010213  USELESS:     501681
L1I AVERAGE MISS LATENCY: 18.8233 cycles
L2C TOTAL     ACCESS:    7861665  HIT:    7076432  MISS:     785233
L2C LOAD      ACCESS:     866529  HIT:     699962  MISS:     166567
L2C RFO       ACCESS:     289527  HIT:     242718  MISS:      46809
L2C PREFETCH  ACCESS:    6088668  HIT:    5519431  MISS:     569237
L2C WRITEBACK ACCESS:     616941  HIT:     614321  MISS:       2620
L2C PREFETCH  REQUESTED:    6101429  ISSUED:    6070215  USEFUL:       7472  USELESS:     561167
L2C AVERAGE MISS LATENCY: 42.0648 cycles
LLC TOTAL     ACCESS:    2920128  HIT:    2831988  MISS:      88140
LLC LOAD      ACCESS:     166422  HIT:     147467  MISS:      18955
LLC RFO       ACCESS:      46809  HIT:      42599  MISS:       4210
LLC PREFETCH  ACCESS:    2607363  HIT:    2543055  MISS:      64308
LLC WRITEBACK ACCESS:      99534  HIT:      98867  MISS:        667
LLC PREFETCH  REQUESTED:          0  ISSUED:          0  USEFUL:       2706  USELESS:      60669
LLC AVERAGE MISS LATENCY: 162.638 cycles
Major fault: 0 Minor fault: 6046
CPU 0 L1D next line prefetcher final stats

DRAM Statistics
 CHANNEL 0
 RQ ROW_BUFFER_HIT:      24696  ROW_BUFFER_MISS:      62771
 DBUS_CONGESTED:      35862
 WQ ROW_BUFFER_HIT:        825  ROW_BUFFER_MISS:       5346  FULL:          0

 AVG_CONGESTED_CYCLE: 5

CPU 0 Branch Prediction Accuracy: 99.6894% MPKI: 0.58048 Average ROB Occupancy at Mispredict: 141.947

Branch types
NOT_BRANCH: 40655652 81.3113%
BRANCH_DIRECT_JUMP: 546483 1.09297%
BRANCH_INDIRECT: 172433 0.344866%
BRANCH_CONDITIONAL: 6207593 12.4152%
BRANCH_DIRECT_CALL: 1018497 2.03699%
BRANCH_INDIRECT_CALL: 190373 0.380746%
BRANCH_RETURN: 1208855 2.41771%
BRANCH_OTHER: 0 0%

