Initialize SIGNATURE TABLE
ST_SET: 1
ST_WAY: 256
ST_TAG_BIT: 16
ST_TAG_MASK: ffff

Initialize PATTERN TABLE
PT_SET: 512
PT_WAY: 4
SIG_DELTA_BIT: 7
C_SIG_BIT: 4
C_DELTA_BIT: 4

Initialize PREFETCH FILTER
FILTER_SET: 1024

*** ChampSim Multicore Out-of-Order Simulator ***

Warmup Instructions: 50000000
Simulation Instructions: 50000000
Number of CPUs: 1
LLC sets: 2048
LLC ways: 16
Off-chip DRAM Size: 4096 MB Channels: 1 Width: 64-bit Data Rate: 3200 MT/s

CPU 0 runs /Users/brandon/Documents/CoursesWi22/CSE240C/Homework1/ChampSim/ipc1_public/spec_gcc_001.champsimtrace.xz
L1I D-JOLT instruction prefetcher has been constructed!
CPU 0 L1D next line prefetcher
Heartbeat CPU 0 instructions: 10000003 cycles: 3219195 heartbeat IPC: 3.10637 cumulative IPC: 3.10637 (Simulation time: 0 hr 0 min 52 sec) 
Heartbeat CPU 0 instructions: 20000002 cycles: 6463896 heartbeat IPC: 3.08195 cumulative IPC: 3.09411 (Simulation time: 0 hr 1 min 42 sec) 
Heartbeat CPU 0 instructions: 30000000 cycles: 9665134 heartbeat IPC: 3.12379 cumulative IPC: 3.10394 (Simulation time: 0 hr 2 min 34 sec) 
Heartbeat CPU 0 instructions: 40000001 cycles: 12906430 heartbeat IPC: 3.08519 cumulative IPC: 3.09923 (Simulation time: 0 hr 3 min 26 sec) 
Heartbeat CPU 0 instructions: 50000001 cycles: 16146601 heartbeat IPC: 3.08626 cumulative IPC: 3.09663 (Simulation time: 0 hr 4 min 20 sec) 

Warmup complete CPU 0 instructions: 50000001 cycles: 16146601 (Simulation time: 0 hr 4 min 20 sec) 

Heartbeat CPU 0 instructions: 60000000 cycles: 23998204 heartbeat IPC: 1.27363 cumulative IPC: 1.27363 (Simulation time: 0 hr 5 min 8 sec) 
Heartbeat CPU 0 instructions: 70000002 cycles: 31933211 heartbeat IPC: 1.26024 cumulative IPC: 1.2669 (Simulation time: 0 hr 5 min 53 sec) 
Heartbeat CPU 0 instructions: 80000000 cycles: 39473433 heartbeat IPC: 1.32622 cumulative IPC: 1.28607 (Simulation time: 0 hr 6 min 34 sec) 
Heartbeat CPU 0 instructions: 90000001 cycles: 47374499 heartbeat IPC: 1.26565 cumulative IPC: 1.28091 (Simulation time: 0 hr 7 min 13 sec) 
Heartbeat CPU 0 instructions: 100000000 cycles: 55580668 heartbeat IPC: 1.2186 cumulative IPC: 1.26794 (Simulation time: 0 hr 7 min 48 sec) 
Finished CPU 0 instructions: 50000000 cycles: 39434071 cumulative IPC: 1.26794 (Simulation time: 0 hr 7 min 48 sec) 

ChampSim completed all CPUs

Region of Interest Statistics

CPU 0 cumulative IPC: 1.26794 instructions: 50000000 cycles: 39434071
L1D TOTAL     ACCESS:   19322616  HIT:   18217457  MISS:    1105159
L1D LOAD      ACCESS:    7232425  HIT:    6752969  MISS:     479456
L1D RFO       ACCESS:    5117095  HIT:    5037486  MISS:      79609
L1D PREFETCH  ACCESS:    6973096  HIT:    6427002  MISS:     546094
L1D WRITEBACK ACCESS:          0  HIT:          0  MISS:          0
L1D PREFETCH  REQUESTED:    7276095  ISSUED:    7178206  USEFUL:     275859  USELESS:     270248
L1D AVERAGE MISS LATENCY: 25.6417 cycles
L1I TOTAL     ACCESS:   14158653  HIT:   13393445  MISS:     765208
L1I LOAD      ACCESS:    9299521  HIT:    9244768  MISS:      54753
L1I RFO       ACCESS:          0  HIT:          0  MISS:          0
L1I PREFETCH  ACCESS:    4859132  HIT:    4148677  MISS:     710455
L1I WRITEBACK ACCESS:          0  HIT:          0  MISS:          0
L1I PREFETCH  REQUESTED:    4992711  ISSUED:    4976810  USEFUL:     395143  USELESS:     315330
L1I AVERAGE MISS LATENCY: 18.3082 cycles
L2C TOTAL     ACCESS:    3097565  HIT:    2845181  MISS:     252384
L2C LOAD      ACCESS:     505628  HIT:     415150  MISS:      90478
L2C RFO       ACCESS:      75004  HIT:      37097  MISS:      37907
L2C PREFETCH  ACCESS:    2263177  HIT:    2139583  MISS:     123594
L2C WRITEBACK ACCESS:     253756  HIT:     253351  MISS:        405
L2C PREFETCH  REQUESTED:    1913875  ISSUED:    1913693  USEFUL:      32933  USELESS:      90427
L2C AVERAGE MISS LATENCY: 62.3728 cycles
LLC TOTAL     ACCESS:     671481  HIT:     598047  MISS:      73434
LLC LOAD      ACCESS:      90292  HIT:      78667  MISS:      11625
LLC RFO       ACCESS:      37907  HIT:      17049  MISS:      20858
LLC PREFETCH  ACCESS:     452382  HIT:     412327  MISS:      40055
LLC WRITEBACK ACCESS:      90900  HIT:      90004  MISS:        896
LLC PREFETCH  REQUESTED:          0  ISSUED:          0  USEFUL:      13547  USELESS:      28750
LLC AVERAGE MISS LATENCY: 186.633 cycles
Major fault: 0 Minor fault: 6866
CPU 0 L1D next line prefetcher final stats

DRAM Statistics
 CHANNEL 0
 RQ ROW_BUFFER_HIT:      19716  ROW_BUFFER_MISS:      52819
 DBUS_CONGESTED:      35876
 WQ ROW_BUFFER_HIT:       4306  ROW_BUFFER_MISS:      23353  FULL:          0

 AVG_CONGESTED_CYCLE: 6

CPU 0 Branch Prediction Accuracy: 95.8872% MPKI: 9.67286 Average ROB Occupancy at Mispredict: 67.0522

Branch types
NOT_BRANCH: 38240102 76.4802%
BRANCH_DIRECT_JUMP: 653296 1.30659%
BRANCH_INDIRECT: 37098 0.074196%
BRANCH_CONDITIONAL: 8897819 17.7956%
BRANCH_DIRECT_CALL: 992620 1.98524%
BRANCH_INDIRECT_CALL: 93046 0.186092%
BRANCH_RETURN: 1085674 2.17135%
BRANCH_OTHER: 0 0%

