Initialize SIGNATURE TABLE
ST_SET: 1
ST_WAY: 256
ST_TAG_BIT: 16
ST_TAG_MASK: ffff

Initialize PATTERN TABLE
PT_SET: 512
PT_WAY: 4
SIG_DELTA_BIT: 7
C_SIG_BIT: 4
C_DELTA_BIT: 4

Initialize PREFETCH FILTER
FILTER_SET: 1024

*** ChampSim Multicore Out-of-Order Simulator ***

Warmup Instructions: 50000000
Simulation Instructions: 50000000
Number of CPUs: 1
LLC sets: 2048
LLC ways: 16
Off-chip DRAM Size: 4096 MB Channels: 1 Width: 64-bit Data Rate: 3200 MT/s

CPU 0 runs /Users/brandon/Documents/CoursesWi22/CSE240C/Homework1/ChampSim/ipc1_public/client_001.champsimtrace.xz
L1I D-JOLT instruction prefetcher has been constructed!
CPU 0 L1D next line prefetcher
Heartbeat CPU 0 instructions: 10000003 cycles: 3411039 heartbeat IPC: 2.93166 cumulative IPC: 2.93166 (Simulation time: 0 hr 1 min 3 sec) 
Heartbeat CPU 0 instructions: 20000001 cycles: 7119747 heartbeat IPC: 2.69636 cumulative IPC: 2.80909 (Simulation time: 0 hr 2 min 18 sec) 
Heartbeat CPU 0 instructions: 30000001 cycles: 10483283 heartbeat IPC: 2.97306 cumulative IPC: 2.8617 (Simulation time: 0 hr 3 min 40 sec) 
Heartbeat CPU 0 instructions: 40000003 cycles: 14353522 heartbeat IPC: 2.58382 cumulative IPC: 2.78677 (Simulation time: 0 hr 5 min 9 sec) 
Heartbeat CPU 0 instructions: 50000003 cycles: 17651630 heartbeat IPC: 3.03204 cumulative IPC: 2.8326 (Simulation time: 0 hr 6 min 34 sec) 

Warmup complete CPU 0 instructions: 50000003 cycles: 17651630 (Simulation time: 0 hr 6 min 34 sec) 

Heartbeat CPU 0 instructions: 60000000 cycles: 26694282 heartbeat IPC: 1.10587 cumulative IPC: 1.10587 (Simulation time: 0 hr 8 min 0 sec) 
Heartbeat CPU 0 instructions: 70000000 cycles: 33105844 heartbeat IPC: 1.55968 cumulative IPC: 1.29415 (Simulation time: 0 hr 9 min 14 sec) 
Heartbeat CPU 0 instructions: 80000002 cycles: 42457574 heartbeat IPC: 1.06932 cumulative IPC: 1.20939 (Simulation time: 0 hr 10 min 51 sec) 
Heartbeat CPU 0 instructions: 90000000 cycles: 48759796 heartbeat IPC: 1.58674 cumulative IPC: 1.28584 (Simulation time: 0 hr 12 min 0 sec) 
Heartbeat CPU 0 instructions: 100000002 cycles: 57612774 heartbeat IPC: 1.12956 cumulative IPC: 1.25122 (Simulation time: 0 hr 13 min 10 sec) 
Finished CPU 0 instructions: 50000003 cycles: 39961145 cumulative IPC: 1.25122 (Simulation time: 0 hr 13 min 10 sec) 

ChampSim completed all CPUs

Region of Interest Statistics

CPU 0 cumulative IPC: 1.25122 instructions: 50000003 cycles: 39961145
L1D TOTAL     ACCESS:   21220641  HIT:   20384152  MISS:     836489
L1D LOAD      ACCESS:    8812836  HIT:    8417973  MISS:     394863
L1D RFO       ACCESS:    4040149  HIT:    3981093  MISS:      59056
L1D PREFETCH  ACCESS:    8367656  HIT:    7985086  MISS:     382570
L1D WRITEBACK ACCESS:          0  HIT:          0  MISS:          0
L1D PREFETCH  REQUESTED:    8858197  ISSUED:    8549124  USEFUL:     129523  USELESS:     253020
L1D AVERAGE MISS LATENCY: 48.4237 cycles
L1I TOTAL     ACCESS:   14155557  HIT:   13207693  MISS:     947864
L1I LOAD      ACCESS:    8960380  HIT:    8947962  MISS:      12418
L1I RFO       ACCESS:          0  HIT:          0  MISS:          0
L1I PREFETCH  ACCESS:    5195177  HIT:    4259731  MISS:     935446
L1I WRITEBACK ACCESS:          0  HIT:          0  MISS:          0
L1I PREFETCH  REQUESTED:    5546835  ISSUED:    5416486  USEFUL:     462616  USELESS:     472691
L1I AVERAGE MISS LATENCY: 17.9599 cycles
L2C TOTAL     ACCESS:    2740003  HIT:    2433737  MISS:     306266
L2C LOAD      ACCESS:     386471  HIT:     272183  MISS:     114288
L2C RFO       ACCESS:      58294  HIT:      21360  MISS:      36934
L2C PREFETCH  ACCESS:    2105629  HIT:    1950976  MISS:     154653
L2C WRITEBACK ACCESS:     189609  HIT:     189218  MISS:        391
L2C PREFETCH  REQUESTED:    2059575  ISSUED:    2053727  USEFUL:      13542  USELESS:     139998
L2C AVERAGE MISS LATENCY: 106.982 cycles
LLC TOTAL     ACCESS:     860572  HIT:     659303  MISS:     201269
LLC LOAD      ACCESS:     113961  HIT:      70572  MISS:      43389
LLC RFO       ACCESS:      36934  HIT:       8736  MISS:      28198
LLC PREFETCH  ACCESS:     603107  HIT:     474152  MISS:     128955
LLC WRITEBACK ACCESS:     106570  HIT:     105843  MISS:        727
LLC PREFETCH  REQUESTED:          0  ISSUED:          0  USEFUL:      27829  USELESS:     103045
LLC AVERAGE MISS LATENCY: 190.88 cycles
Major fault: 0 Minor fault: 3439
CPU 0 L1D next line prefetcher final stats

DRAM Statistics
 CHANNEL 0
 RQ ROW_BUFFER_HIT:      47594  ROW_BUFFER_MISS:     152943
 DBUS_CONGESTED:     116007
 WQ ROW_BUFFER_HIT:      15823  ROW_BUFFER_MISS:      64809  FULL:          0

 AVG_CONGESTED_CYCLE: 5

CPU 0 Branch Prediction Accuracy: 97.9037% MPKI: 3.63418 Average ROB Occupancy at Mispredict: 87.1731

Branch types
NOT_BRANCH: 41331383 82.6628%
BRANCH_DIRECT_JUMP: 455615 0.91123%
BRANCH_INDIRECT: 20390 0.04078%
BRANCH_CONDITIONAL: 6745374 13.4907%
BRANCH_DIRECT_CALL: 494532 0.989064%
BRANCH_INDIRECT_CALL: 228815 0.45763%
BRANCH_RETURN: 723560 1.44712%
BRANCH_OTHER: 0 0%

