Initialize SIGNATURE TABLE
ST_SET: 1
ST_WAY: 256
ST_TAG_BIT: 16
ST_TAG_MASK: ffff

Initialize PATTERN TABLE
PT_SET: 512
PT_WAY: 4
SIG_DELTA_BIT: 7
C_SIG_BIT: 4
C_DELTA_BIT: 4

Initialize PREFETCH FILTER
FILTER_SET: 1024

*** ChampSim Multicore Out-of-Order Simulator ***

Warmup Instructions: 50000000
Simulation Instructions: 50000000
Number of CPUs: 1
LLC sets: 2048
LLC ways: 16
Off-chip DRAM Size: 4096 MB Channels: 1 Width: 64-bit Data Rate: 3200 MT/s

CPU 0 runs /Users/brandon/Documents/CoursesWi22/CSE240C/Homework1/ChampSim/ipc1_public/client_007.champsimtrace.xz
L1I D-JOLT instruction prefetcher has been constructed!
CPU 0 L1D next line prefetcher
Heartbeat CPU 0 instructions: 10000001 cycles: 3642147 heartbeat IPC: 2.74563 cumulative IPC: 2.74563 (Simulation time: 0 hr 1 min 2 sec) 
Heartbeat CPU 0 instructions: 20000003 cycles: 7034702 heartbeat IPC: 2.94763 cumulative IPC: 2.84305 (Simulation time: 0 hr 2 min 11 sec) 
Heartbeat CPU 0 instructions: 30000000 cycles: 10907352 heartbeat IPC: 2.58221 cumulative IPC: 2.75044 (Simulation time: 0 hr 3 min 45 sec) 
Heartbeat CPU 0 instructions: 40000003 cycles: 15067364 heartbeat IPC: 2.40384 cumulative IPC: 2.65474 (Simulation time: 0 hr 5 min 18 sec) 
Heartbeat CPU 0 instructions: 50000002 cycles: 18473127 heartbeat IPC: 2.9362 cumulative IPC: 2.70663 (Simulation time: 0 hr 6 min 44 sec) 

Warmup complete CPU 0 instructions: 50000002 cycles: 18473127 (Simulation time: 0 hr 6 min 44 sec) 

Heartbeat CPU 0 instructions: 60000003 cycles: 25366384 heartbeat IPC: 1.45069 cumulative IPC: 1.45069 (Simulation time: 0 hr 8 min 15 sec) 
Heartbeat CPU 0 instructions: 70000003 cycles: 34236250 heartbeat IPC: 1.12741 cumulative IPC: 1.26878 (Simulation time: 0 hr 9 min 55 sec) 
Heartbeat CPU 0 instructions: 80000002 cycles: 39567996 heartbeat IPC: 1.87556 cumulative IPC: 1.42215 (Simulation time: 0 hr 11 min 0 sec) 
Heartbeat CPU 0 instructions: 90000002 cycles: 47194256 heartbeat IPC: 1.31126 cumulative IPC: 1.3927 (Simulation time: 0 hr 12 min 26 sec) 
Heartbeat CPU 0 instructions: 100000002 cycles: 56128502 heartbeat IPC: 1.11929 cumulative IPC: 1.32783 (Simulation time: 0 hr 13 min 32 sec) 
Finished CPU 0 instructions: 50000000 cycles: 37655375 cumulative IPC: 1.32783 (Simulation time: 0 hr 13 min 32 sec) 

ChampSim completed all CPUs

Region of Interest Statistics

CPU 0 cumulative IPC: 1.32783 instructions: 50000000 cycles: 37655375
L1D TOTAL     ACCESS:   21196113  HIT:   20027076  MISS:    1169037
L1D LOAD      ACCESS:    8368521  HIT:    7829212  MISS:     539309
L1D RFO       ACCESS:    4869262  HIT:    4778194  MISS:      91068
L1D PREFETCH  ACCESS:    7958330  HIT:    7419670  MISS:     538660
L1D WRITEBACK ACCESS:          0  HIT:          0  MISS:          0
L1D PREFETCH  REQUESTED:    8420229  ISSUED:    8176309  USEFUL:     158188  USELESS:     380486
L1D AVERAGE MISS LATENCY: 34.5555 cycles
L1I TOTAL     ACCESS:   13243897  HIT:   12050540  MISS:    1193357
L1I LOAD      ACCESS:    9103708  HIT:    9040791  MISS:      62917
L1I RFO       ACCESS:          0  HIT:          0  MISS:          0
L1I PREFETCH  ACCESS:    4140189  HIT:    3009749  MISS:    1130440
L1I WRITEBACK ACCESS:          0  HIT:          0  MISS:          0
L1I PREFETCH  REQUESTED:    4362515  ISSUED:    4279513  USEFUL:     838702  USELESS:     291800
L1I AVERAGE MISS LATENCY: 16.4099 cycles
L2C TOTAL     ACCESS:    3541694  HIT:    3336735  MISS:     204959
L2C LOAD      ACCESS:     573666  HIT:     503905  MISS:      69761
L2C RFO       ACCESS:      89480  HIT:      47985  MISS:      41495
L2C PREFETCH  ACCESS:    2550874  HIT:    2457357  MISS:      93517
L2C WRITEBACK ACCESS:     327674  HIT:     327488  MISS:        186
L2C PREFETCH  REQUESTED:    2575990  ISSUED:    2566480  USEFUL:       9837  USELESS:      83533
L2C AVERAGE MISS LATENCY: 125.973 cycles
LLC TOTAL     ACCESS:     921345  HIT:     753147  MISS:     168198
LLC LOAD      ACCESS:      69681  HIT:      34229  MISS:      35452
LLC RFO       ACCESS:      41494  HIT:       6994  MISS:      34500
LLC PREFETCH  ACCESS:     735811  HIT:     637851  MISS:      97960
LLC WRITEBACK ACCESS:      74359  HIT:      74073  MISS:        286
LLC PREFETCH  REQUESTED:          0  ISSUED:          0  USEFUL:      18504  USELESS:      80420
LLC AVERAGE MISS LATENCY: 182.395 cycles
Major fault: 0 Minor fault: 4413
CPU 0 L1D next line prefetcher final stats

DRAM Statistics
 CHANNEL 0
 RQ ROW_BUFFER_HIT:      34879  ROW_BUFFER_MISS:     133022
 DBUS_CONGESTED:      93530
 WQ ROW_BUFFER_HIT:      12808  ROW_BUFFER_MISS:      45249  FULL:          0

 AVG_CONGESTED_CYCLE: 5

CPU 0 Branch Prediction Accuracy: 98.8607% MPKI: 1.8623 Average ROB Occupancy at Mispredict: 113.375

Branch types
NOT_BRANCH: 41826773 83.6535%
BRANCH_DIRECT_JUMP: 735330 1.47066%
BRANCH_INDIRECT: 269194 0.538388%
BRANCH_CONDITIONAL: 5957947 11.9159%
BRANCH_DIRECT_CALL: 368758 0.737516%
BRANCH_INDIRECT_CALL: 226975 0.45395%
BRANCH_RETURN: 614696 1.22939%
BRANCH_OTHER: 0 0%

