Initialize SIGNATURE TABLE
ST_SET: 1
ST_WAY: 256
ST_TAG_BIT: 16
ST_TAG_MASK: ffff

Initialize PATTERN TABLE
PT_SET: 512
PT_WAY: 4
SIG_DELTA_BIT: 7
C_SIG_BIT: 4
C_DELTA_BIT: 4

Initialize PREFETCH FILTER
FILTER_SET: 1024

*** ChampSim Multicore Out-of-Order Simulator ***

Warmup Instructions: 50000000
Simulation Instructions: 50000000
Number of CPUs: 1
LLC sets: 2048
LLC ways: 16
Off-chip DRAM Size: 4096 MB Channels: 1 Width: 64-bit Data Rate: 3200 MT/s

CPU 0 runs /Users/brandon/Documents/CoursesWi22/CSE240C/Homework1/ChampSim/ipc1_public/client_005.champsimtrace.xz
L1I D-JOLT instruction prefetcher has been constructed!
CPU 0 L1D next line prefetcher
Heartbeat CPU 0 instructions: 10000001 cycles: 3291448 heartbeat IPC: 3.03818 cumulative IPC: 3.03818 (Simulation time: 0 hr 1 min 2 sec) 
Heartbeat CPU 0 instructions: 20000002 cycles: 6698215 heartbeat IPC: 2.93533 cumulative IPC: 2.98587 (Simulation time: 0 hr 2 min 21 sec) 
Heartbeat CPU 0 instructions: 30000001 cycles: 10391519 heartbeat IPC: 2.7076 cumulative IPC: 2.88697 (Simulation time: 0 hr 4 min 0 sec) 
Heartbeat CPU 0 instructions: 40000000 cycles: 14069422 heartbeat IPC: 2.71894 cumulative IPC: 2.84304 (Simulation time: 0 hr 5 min 40 sec) 
Heartbeat CPU 0 instructions: 50000001 cycles: 17343107 heartbeat IPC: 3.05466 cumulative IPC: 2.88299 (Simulation time: 0 hr 7 min 11 sec) 

Warmup complete CPU 0 instructions: 50000001 cycles: 17343107 (Simulation time: 0 hr 7 min 11 sec) 

Heartbeat CPU 0 instructions: 60000002 cycles: 25330738 heartbeat IPC: 1.25194 cumulative IPC: 1.25194 (Simulation time: 0 hr 8 min 32 sec) 
Heartbeat CPU 0 instructions: 70000003 cycles: 32742766 heartbeat IPC: 1.34916 cumulative IPC: 1.29873 (Simulation time: 0 hr 10 min 1 sec) 
Heartbeat CPU 0 instructions: 80000001 cycles: 39611241 heartbeat IPC: 1.45593 cumulative IPC: 1.34722 (Simulation time: 0 hr 11 min 40 sec) 
Heartbeat CPU 0 instructions: 90000002 cycles: 49134337 heartbeat IPC: 1.05008 cumulative IPC: 1.25821 (Simulation time: 0 hr 13 min 12 sec) 
Heartbeat CPU 0 instructions: 100000002 cycles: 56964094 heartbeat IPC: 1.27718 cumulative IPC: 1.26196 (Simulation time: 0 hr 13 min 54 sec) 
Finished CPU 0 instructions: 50000001 cycles: 39620987 cumulative IPC: 1.26196 (Simulation time: 0 hr 13 min 54 sec) 

ChampSim completed all CPUs

Region of Interest Statistics

CPU 0 cumulative IPC: 1.26196 instructions: 50000001 cycles: 39620987
L1D TOTAL     ACCESS:   19654787  HIT:   19119000  MISS:     535787
L1D LOAD      ACCESS:    6657578  HIT:    6485817  MISS:     171761
L1D RFO       ACCESS:    6792494  HIT:    6607921  MISS:     184573
L1D PREFETCH  ACCESS:    6204715  HIT:    6025262  MISS:     179453
L1D WRITEBACK ACCESS:          0  HIT:          0  MISS:          0
L1D PREFETCH  REQUESTED:    6681463  ISSUED:    6311113  USEFUL:      59330  USELESS:     120011
L1D AVERAGE MISS LATENCY: 94.7699 cycles
L1I TOTAL     ACCESS:   18838450  HIT:   15812588  MISS:    3025862
L1I LOAD      ACCESS:    9390878  HIT:    9235729  MISS:     155149
L1I RFO       ACCESS:          0  HIT:          0  MISS:          0
L1I PREFETCH  ACCESS:    9447572  HIT:    6576859  MISS:    2870713
L1I WRITEBACK ACCESS:          0  HIT:          0  MISS:          0
L1I PREFETCH  REQUESTED:   10303613  ISSUED:    9653370  USEFUL:    1095584  USELESS:    1775049
L1I AVERAGE MISS LATENCY: 16.5093 cycles
L2C TOTAL     ACCESS:    5057510  HIT:    4657870  MISS:     399640
L2C LOAD      ACCESS:     307401  HIT:     207560  MISS:      99841
L2C RFO       ACCESS:     180874  HIT:      31087  MISS:     149787
L2C PREFETCH  ACCESS:    4316177  HIT:    4167363  MISS:     148814
L2C WRITEBACK ACCESS:     253058  HIT:     251860  MISS:       1198
L2C PREFETCH  REQUESTED:    2390945  ISSUED:    2390659  USEFUL:      20443  USELESS:     127377
L2C AVERAGE MISS LATENCY: 124.538 cycles
LLC TOTAL     ACCESS:     982959  HIT:     684301  MISS:     298658
LLC LOAD      ACCESS:      99828  HIT:      52819  MISS:      47009
LLC RFO       ACCESS:     149786  HIT:      16120  MISS:     133666
LLC PREFETCH  ACCESS:     533077  HIT:     415920  MISS:     117157
LLC WRITEBACK ACCESS:     200268  HIT:     199442  MISS:        826
LLC PREFETCH  REQUESTED:          0  ISSUED:          0  USEFUL:      26744  USELESS:      88893
LLC AVERAGE MISS LATENCY: 167.008 cycles
Major fault: 0 Minor fault: 6090
CPU 0 L1D next line prefetcher final stats

DRAM Statistics
 CHANNEL 0
 RQ ROW_BUFFER_HIT:      94401  ROW_BUFFER_MISS:     203428
 DBUS_CONGESTED:     231617
 WQ ROW_BUFFER_HIT:      53947  ROW_BUFFER_MISS:     128631  FULL:          0

 AVG_CONGESTED_CYCLE: 6

CPU 0 Branch Prediction Accuracy: 97.8666% MPKI: 3.9013 Average ROB Occupancy at Mispredict: 86.0545

Branch types
NOT_BRANCH: 40856330 81.7127%
BRANCH_DIRECT_JUMP: 484667 0.969334%
BRANCH_INDIRECT: 85086 0.170172%
BRANCH_CONDITIONAL: 6230887 12.4618%
BRANCH_DIRECT_CALL: 1028917 2.05783%
BRANCH_INDIRECT_CALL: 141825 0.28365%
BRANCH_RETURN: 1171986 2.34397%
BRANCH_OTHER: 0 0%

