Initialize SIGNATURE TABLE
ST_SET: 1
ST_WAY: 256
ST_TAG_BIT: 16
ST_TAG_MASK: ffff

Initialize PATTERN TABLE
PT_SET: 512
PT_WAY: 4
SIG_DELTA_BIT: 7
C_SIG_BIT: 4
C_DELTA_BIT: 4

Initialize PREFETCH FILTER
FILTER_SET: 1024

*** ChampSim Multicore Out-of-Order Simulator ***

Warmup Instructions: 50000000
Simulation Instructions: 50000000
Number of CPUs: 1
LLC sets: 2048
LLC ways: 16
Off-chip DRAM Size: 4096 MB Channels: 1 Width: 64-bit Data Rate: 3200 MT/s

CPU 0 runs /Users/brandon/Documents/CoursesWi22/CSE240C/Homework1/ChampSim/ipc1_public/server_009.champsimtrace.xz
L1I D-JOLT instruction prefetcher has been constructed!
CPU 0 L1D next line prefetcher
Heartbeat CPU 0 instructions: 10000003 cycles: 3196794 heartbeat IPC: 3.12813 cumulative IPC: 3.12813 (Simulation time: 0 hr 1 min 3 sec) 
Heartbeat CPU 0 instructions: 20000001 cycles: 6386687 heartbeat IPC: 3.1349 cumulative IPC: 3.13151 (Simulation time: 0 hr 2 min 18 sec) 
Heartbeat CPU 0 instructions: 30000002 cycles: 9591505 heartbeat IPC: 3.1203 cumulative IPC: 3.12777 (Simulation time: 0 hr 3 min 45 sec) 
Heartbeat CPU 0 instructions: 40000003 cycles: 12792109 heartbeat IPC: 3.12441 cumulative IPC: 3.12693 (Simulation time: 0 hr 5 min 11 sec) 
Heartbeat CPU 0 instructions: 50000000 cycles: 16049379 heartbeat IPC: 3.07005 cumulative IPC: 3.11539 (Simulation time: 0 hr 6 min 41 sec) 

Warmup complete CPU 0 instructions: 50000004 cycles: 16049380 (Simulation time: 0 hr 6 min 41 sec) 

Heartbeat CPU 0 instructions: 60000002 cycles: 31702399 heartbeat IPC: 0.638855 cumulative IPC: 0.638854 (Simulation time: 0 hr 8 min 37 sec) 
Heartbeat CPU 0 instructions: 70000003 cycles: 52760568 heartbeat IPC: 0.474875 cumulative IPC: 0.544793 (Simulation time: 0 hr 11 min 2 sec) 
Heartbeat CPU 0 instructions: 80000000 cycles: 59928816 heartbeat IPC: 1.39504 cumulative IPC: 0.683691 (Simulation time: 0 hr 12 min 20 sec) 
Heartbeat CPU 0 instructions: 90000001 cycles: 67218666 heartbeat IPC: 1.37177 cumulative IPC: 0.781719 (Simulation time: 0 hr 13 min 32 sec) 
Heartbeat CPU 0 instructions: 100000003 cycles: 74357510 heartbeat IPC: 1.40079 cumulative IPC: 0.857513 (Simulation time: 0 hr 14 min 6 sec) 
Finished CPU 0 instructions: 50000003 cycles: 58308131 cumulative IPC: 0.857513 (Simulation time: 0 hr 14 min 6 sec) 

ChampSim completed all CPUs

Region of Interest Statistics

CPU 0 cumulative IPC: 0.857513 instructions: 50000003 cycles: 58308131
L1D TOTAL     ACCESS:   21612848  HIT:   17033377  MISS:    4579471
L1D LOAD      ACCESS:    8622977  HIT:    6342555  MISS:    2280422
L1D RFO       ACCESS:    4580606  HIT:    4476179  MISS:     104427
L1D PREFETCH  ACCESS:    8409265  HIT:    6214643  MISS:    2194622
L1D WRITEBACK ACCESS:          0  HIT:          0  MISS:          0
L1D PREFETCH  REQUESTED:    8655074  ISSUED:    8557978  USEFUL:     106179  USELESS:    2088442
L1D AVERAGE MISS LATENCY: 20.4414 cycles
L1I TOTAL     ACCESS:   17044969  HIT:   15500330  MISS:    1544639
L1I LOAD      ACCESS:   10779115  HIT:   10712490  MISS:      66625
L1I RFO       ACCESS:          0  HIT:          0  MISS:          0
L1I PREFETCH  ACCESS:    6265854  HIT:    4787840  MISS:    1478014
L1I WRITEBACK ACCESS:          0  HIT:          0  MISS:          0
L1I PREFETCH  REQUESTED:    6817738  ISSUED:    6542139  USEFUL:    1087618  USELESS:     390400
L1I AVERAGE MISS LATENCY: 31.3317 cycles
L2C TOTAL     ACCESS:    7936838  HIT:    6876769  MISS:    1060069
L2C LOAD      ACCESS:    2298804  HIT:    2075947  MISS:     222857
L2C RFO       ACCESS:     103466  HIT:      63177  MISS:      40289
L2C PREFETCH  ACCESS:    5277712  HIT:    4482011  MISS:     795701
L2C WRITEBACK ACCESS:     256856  HIT:     255634  MISS:       1222
L2C PREFETCH  REQUESTED:    7218165  ISSUED:    7215050  USEFUL:      21629  USELESS:     772961
L2C AVERAGE MISS LATENCY: 47.0835 cycles
LLC TOTAL     ACCESS:    2527530  HIT:    2386512  MISS:     141018
LLC LOAD      ACCESS:     222624  HIT:     202177  MISS:      20447
LLC RFO       ACCESS:      40288  HIT:      31058  MISS:       9230
LLC PREFETCH  ACCESS:    2124461  HIT:    2013363  MISS:     111098
LLC WRITEBACK ACCESS:     140157  HIT:     139914  MISS:        243
LLC PREFETCH  REQUESTED:          0  ISSUED:          0  USEFUL:      11892  USELESS:      97628
LLC AVERAGE MISS LATENCY: 173.893 cycles
Major fault: 0 Minor fault: 6365
CPU 0 L1D next line prefetcher final stats

DRAM Statistics
 CHANNEL 0
 RQ ROW_BUFFER_HIT:      26942  ROW_BUFFER_MISS:     113816
 DBUS_CONGESTED:      59594
 WQ ROW_BUFFER_HIT:       9405  ROW_BUFFER_MISS:      37935  FULL:          0

 AVG_CONGESTED_CYCLE: 5

CPU 0 Branch Prediction Accuracy: 99.4713% MPKI: 1.11484 Average ROB Occupancy at Mispredict: 120.153

Branch types
NOT_BRANCH: 39456615 78.9132%
BRANCH_DIRECT_JUMP: 445350 0.8907%
BRANCH_INDIRECT: 131149 0.262298%
BRANCH_CONDITIONAL: 8130196 16.2604%
BRANCH_DIRECT_CALL: 732485 1.46497%
BRANCH_INDIRECT_CALL: 172369 0.344738%
BRANCH_RETURN: 931558 1.86312%
BRANCH_OTHER: 0 0%

