Initialize SIGNATURE TABLE
ST_SET: 1
ST_WAY: 256
ST_TAG_BIT: 16
ST_TAG_MASK: ffff

Initialize PATTERN TABLE
PT_SET: 512
PT_WAY: 4
SIG_DELTA_BIT: 7
C_SIG_BIT: 4
C_DELTA_BIT: 4

Initialize PREFETCH FILTER
FILTER_SET: 1024

*** ChampSim Multicore Out-of-Order Simulator ***

Warmup Instructions: 50000000
Simulation Instructions: 50000000
Number of CPUs: 1
LLC sets: 2048
LLC ways: 16
Off-chip DRAM Size: 4096 MB Channels: 1 Width: 64-bit Data Rate: 3200 MT/s

CPU 0 runs /Users/brandon/Documents/CoursesWi22/CSE240C/Homework1/ChampSim/ipc1_public/server_030.champsimtrace.xz
L1I D-JOLT instruction prefetcher has been constructed!
CPU 0 L1D next line prefetcher
Heartbeat CPU 0 instructions: 10000003 cycles: 3505745 heartbeat IPC: 2.85246 cumulative IPC: 2.85246 (Simulation time: 0 hr 1 min 29 sec) 
Heartbeat CPU 0 instructions: 20000003 cycles: 7011362 heartbeat IPC: 2.85256 cumulative IPC: 2.85251 (Simulation time: 0 hr 3 min 4 sec) 
Heartbeat CPU 0 instructions: 30000000 cycles: 10516830 heartbeat IPC: 2.85269 cumulative IPC: 2.85257 (Simulation time: 0 hr 4 min 40 sec) 
Heartbeat CPU 0 instructions: 40000002 cycles: 14022216 heartbeat IPC: 2.85275 cumulative IPC: 2.85262 (Simulation time: 0 hr 6 min 12 sec) 
Heartbeat CPU 0 instructions: 50000002 cycles: 17530685 heartbeat IPC: 2.85025 cumulative IPC: 2.85214 (Simulation time: 0 hr 7 min 45 sec) 

Warmup complete CPU 0 instructions: 50000002 cycles: 17530685 (Simulation time: 0 hr 7 min 45 sec) 

Heartbeat CPU 0 instructions: 60000002 cycles: 24579704 heartbeat IPC: 1.41864 cumulative IPC: 1.41864 (Simulation time: 0 hr 9 min 20 sec) 
Heartbeat CPU 0 instructions: 70000000 cycles: 31632435 heartbeat IPC: 1.41789 cumulative IPC: 1.41826 (Simulation time: 0 hr 10 min 57 sec) 
Heartbeat CPU 0 instructions: 80000001 cycles: 38682420 heartbeat IPC: 1.41844 cumulative IPC: 1.41832 (Simulation time: 0 hr 12 min 39 sec) 
*** Reached end of trace for Core: 0 Repeating trace: /Users/brandon/Documents/CoursesWi22/CSE240C/Homework1/ChampSim/ipc1_public/server_030.champsimtrace.xz
Heartbeat CPU 0 instructions: 90000002 cycles: 45721308 heartbeat IPC: 1.42068 cumulative IPC: 1.41891 (Simulation time: 0 hr 15 min 0 sec) 
Heartbeat CPU 0 instructions: 100000002 cycles: 52766365 heartbeat IPC: 1.41943 cumulative IPC: 1.41902 (Simulation time: 0 hr 16 min 15 sec) 
Finished CPU 0 instructions: 50000000 cycles: 35235680 cumulative IPC: 1.41902 (Simulation time: 0 hr 16 min 15 sec) 

ChampSim completed all CPUs

Region of Interest Statistics

CPU 0 cumulative IPC: 1.41902 instructions: 50000000 cycles: 35235680
L1D TOTAL     ACCESS:   19151787  HIT:   17075840  MISS:    2075947
L1D LOAD      ACCESS:    6764708  HIT:    5710623  MISS:    1054085
L1D RFO       ACCESS:    6167643  HIT:    5881126  MISS:     286517
L1D PREFETCH  ACCESS:    6219436  HIT:    5484091  MISS:     735345
L1D WRITEBACK ACCESS:          0  HIT:          0  MISS:          0
L1D PREFETCH  REQUESTED:    6816489  ISSUED:    6682041  USEFUL:     179770  USELESS:     555668
L1D AVERAGE MISS LATENCY: 19.7727 cycles
L1I TOTAL     ACCESS:   16659944  HIT:   13200547  MISS:    3459397
L1I LOAD      ACCESS:    9818193  HIT:    9773100  MISS:      45093
L1I RFO       ACCESS:          0  HIT:          0  MISS:          0
L1I PREFETCH  ACCESS:    6841751  HIT:    3427447  MISS:    3414304
L1I WRITEBACK ACCESS:          0  HIT:          0  MISS:          0
L1I PREFETCH  REQUESTED:    7344368  ISSUED:    7244362  USEFUL:    2950126  USELESS:     464209
L1I AVERAGE MISS LATENCY: 19.1606 cycles
L2C TOTAL     ACCESS:    7797694  HIT:    6920375  MISS:     877319
L2C LOAD      ACCESS:     937190  HIT:     767672  MISS:     169518
L2C RFO       ACCESS:     283781  HIT:     209133  MISS:      74648
L2C PREFETCH  ACCESS:    5961154  HIT:    5329931  MISS:     631223
L2C WRITEBACK ACCESS:     615569  HIT:     613639  MISS:       1930
L2C PREFETCH  REQUESTED:    5458900  ISSUED:    5449664  USEFUL:       7506  USELESS:     623541
L2C AVERAGE MISS LATENCY: 33.7574 cycles
LLC TOTAL     ACCESS:    2443363  HIT:    2419692  MISS:      23671
LLC LOAD      ACCESS:     169199  HIT:     166180  MISS:       3019
LLC RFO       ACCESS:      74645  HIT:      72837  MISS:       1808
LLC PREFETCH  ACCESS:    2065058  HIT:    2046319  MISS:      18739
LLC WRITEBACK ACCESS:     134461  HIT:     134356  MISS:        105
LLC PREFETCH  REQUESTED:          0  ISSUED:          0  USEFUL:        831  USELESS:      17096
LLC AVERAGE MISS LATENCY: 149.454 cycles
Major fault: 0 Minor fault: 2044
CPU 0 L1D next line prefetcher final stats

DRAM Statistics
 CHANNEL 0
 RQ ROW_BUFFER_HIT:       7189  ROW_BUFFER_MISS:      16377
 DBUS_CONGESTED:       6912
 WQ ROW_BUFFER_HIT:        186  ROW_BUFFER_MISS:       2406  FULL:          0

 AVG_CONGESTED_CYCLE: 5

CPU 0 Branch Prediction Accuracy: 99.8445% MPKI: 0.29148 Average ROB Occupancy at Mispredict: 166.09

Branch types
NOT_BRANCH: 40628075 81.2562%
BRANCH_DIRECT_JUMP: 490941 0.981882%
BRANCH_INDIRECT: 175854 0.351708%
BRANCH_CONDITIONAL: 6321415 12.6428%
BRANCH_DIRECT_CALL: 1002072 2.00414%
BRANCH_INDIRECT_CALL: 189783 0.379566%
BRANCH_RETURN: 1191851 2.3837%
BRANCH_OTHER: 0 0%

