Initialize SIGNATURE TABLE
ST_SET: 1
ST_WAY: 256
ST_TAG_BIT: 16
ST_TAG_MASK: ffff

Initialize PATTERN TABLE
PT_SET: 512
PT_WAY: 4
SIG_DELTA_BIT: 7
C_SIG_BIT: 4
C_DELTA_BIT: 4

Initialize PREFETCH FILTER
FILTER_SET: 1024

*** ChampSim Multicore Out-of-Order Simulator ***

Warmup Instructions: 50000000
Simulation Instructions: 50000000
Number of CPUs: 1
LLC sets: 2048
LLC ways: 16
Off-chip DRAM Size: 4096 MB Channels: 1 Width: 64-bit Data Rate: 3200 MT/s

CPU 0 runs /Users/brandon/Documents/CoursesWi22/CSE240C/Homework1/ChampSim/ipc1_public/server_032.champsimtrace.xz
L1I D-JOLT instruction prefetcher has been constructed!
CPU 0 L1D next line prefetcher
Heartbeat CPU 0 instructions: 10000002 cycles: 3520200 heartbeat IPC: 2.84075 cumulative IPC: 2.84075 (Simulation time: 0 hr 1 min 30 sec) 
Heartbeat CPU 0 instructions: 20000003 cycles: 7041016 heartbeat IPC: 2.84025 cumulative IPC: 2.8405 (Simulation time: 0 hr 3 min 7 sec) 
Heartbeat CPU 0 instructions: 30000000 cycles: 10561319 heartbeat IPC: 2.84066 cumulative IPC: 2.84055 (Simulation time: 0 hr 4 min 44 sec) 
Heartbeat CPU 0 instructions: 40000003 cycles: 14082924 heartbeat IPC: 2.83962 cumulative IPC: 2.84032 (Simulation time: 0 hr 6 min 18 sec) 
Heartbeat CPU 0 instructions: 50000000 cycles: 17603798 heartbeat IPC: 2.8402 cumulative IPC: 2.8403 (Simulation time: 0 hr 7 min 52 sec) 

Warmup complete CPU 0 instructions: 50000004 cycles: 17603799 (Simulation time: 0 hr 7 min 52 sec) 

Heartbeat CPU 0 instructions: 60000002 cycles: 24269415 heartbeat IPC: 1.50024 cumulative IPC: 1.50024 (Simulation time: 0 hr 9 min 28 sec) 
Heartbeat CPU 0 instructions: 70000000 cycles: 30928479 heartbeat IPC: 1.50171 cumulative IPC: 1.50097 (Simulation time: 0 hr 11 min 8 sec) 
*** Reached end of trace for Core: 0 Repeating trace: /Users/brandon/Documents/CoursesWi22/CSE240C/Homework1/ChampSim/ipc1_public/server_032.champsimtrace.xz
Heartbeat CPU 0 instructions: 80000003 cycles: 37590186 heartbeat IPC: 1.50112 cumulative IPC: 1.50102 (Simulation time: 0 hr 12 min 50 sec) 
Heartbeat CPU 0 instructions: 90000002 cycles: 44222259 heartbeat IPC: 1.50782 cumulative IPC: 1.50272 (Simulation time: 0 hr 14 min 33 sec) 
Heartbeat CPU 0 instructions: 100000001 cycles: 50861935 heartbeat IPC: 1.5061 cumulative IPC: 1.50339 (Simulation time: 0 hr 16 min 5 sec) 
Finished CPU 0 instructions: 50000002 cycles: 33258138 cumulative IPC: 1.50339 (Simulation time: 0 hr 16 min 5 sec) 

ChampSim completed all CPUs

Region of Interest Statistics

CPU 0 cumulative IPC: 1.50339 instructions: 50000002 cycles: 33258138
L1D TOTAL     ACCESS:   19816548  HIT:   17988476  MISS:    1828072
L1D LOAD      ACCESS:    6767324  HIT:    5973548  MISS:     793776
L1D RFO       ACCESS:    6559353  HIT:    6264739  MISS:     294614
L1D PREFETCH  ACCESS:    6489871  HIT:    5750189  MISS:     739682
L1D WRITEBACK ACCESS:          0  HIT:          0  MISS:          0
L1D PREFETCH  REQUESTED:    6815640  ISSUED:    6676582  USEFUL:     170351  USELESS:     569330
L1D AVERAGE MISS LATENCY: 18.3377 cycles
L1I TOTAL     ACCESS:   17103025  HIT:   13703174  MISS:    3399851
L1I LOAD      ACCESS:    9704041  HIT:    9640839  MISS:      63202
L1I RFO       ACCESS:          0  HIT:          0  MISS:          0
L1I PREFETCH  ACCESS:    7398984  HIT:    4062335  MISS:    3336649
L1I WRITEBACK ACCESS:          0  HIT:          0  MISS:          0
L1I PREFETCH  REQUESTED:    7838756  ISSUED:    7799918  USEFUL:    3129624  USELESS:     207029
L1I AVERAGE MISS LATENCY: 17.2476 cycles
L2C TOTAL     ACCESS:    7567265  HIT:    7072384  MISS:     494881
L2C LOAD      ACCESS:     822365  HIT:     735359  MISS:      87006
L2C RFO       ACCESS:     292725  HIT:     249429  MISS:      43296
L2C PREFETCH  ACCESS:    5815794  HIT:    5453290  MISS:     362504
L2C WRITEBACK ACCESS:     636381  HIT:     634306  MISS:       2075
L2C PREFETCH  REQUESTED:    5331689  ISSUED:    5316782  USEFUL:       4447  USELESS:     358003
L2C AVERAGE MISS LATENCY: 32.9037 cycles
LLC TOTAL     ACCESS:    2001704  HIT:    1995189  MISS:       6515
LLC LOAD      ACCESS:      86906  HIT:      86467  MISS:        439
LLC RFO       ACCESS:      43289  HIT:      43289  MISS:          0
LLC PREFETCH  ACCESS:    1798521  HIT:    1792474  MISS:       6047
LLC WRITEBACK ACCESS:      72988  HIT:      72959  MISS:         29
LLC PREFETCH  REQUESTED:          0  ISSUED:          0  USEFUL:        373  USELESS:       2131
LLC AVERAGE MISS LATENCY: 150.598 cycles
Major fault: 0 Minor fault: 1183
CPU 0 L1D next line prefetcher final stats

DRAM Statistics
 CHANNEL 0
 RQ ROW_BUFFER_HIT:       1600  ROW_BUFFER_MISS:       4886
 DBUS_CONGESTED:        741
 WQ ROW_BUFFER_HIT:          0  ROW_BUFFER_MISS:         26  FULL:          0

 AVG_CONGESTED_CYCLE: 4

CPU 0 Branch Prediction Accuracy: 99.8762% MPKI: 0.2296 Average ROB Occupancy at Mispredict: 173.282

Branch types
NOT_BRANCH: 40726162 81.4523%
BRANCH_DIRECT_JUMP: 508374 1.01675%
BRANCH_INDIRECT: 180051 0.360102%
BRANCH_CONDITIONAL: 5999663 11.9993%
BRANCH_DIRECT_CALL: 1086739 2.17348%
BRANCH_INDIRECT_CALL: 206109 0.412218%
BRANCH_RETURN: 1292837 2.58567%
BRANCH_OTHER: 0 0%

