Initialize SIGNATURE TABLE
ST_SET: 1
ST_WAY: 256
ST_TAG_BIT: 16
ST_TAG_MASK: ffff

Initialize PATTERN TABLE
PT_SET: 512
PT_WAY: 4
SIG_DELTA_BIT: 7
C_SIG_BIT: 4
C_DELTA_BIT: 4

Initialize PREFETCH FILTER
FILTER_SET: 1024

*** ChampSim Multicore Out-of-Order Simulator ***

Warmup Instructions: 50000000
Simulation Instructions: 50000000
Number of CPUs: 1
LLC sets: 2048
LLC ways: 16
Off-chip DRAM Size: 4096 MB Channels: 1 Width: 64-bit Data Rate: 3200 MT/s

CPU 0 runs /Users/brandon/Documents/CoursesWi22/CSE240C/Homework1/ChampSim/ipc1_public/server_016.champsimtrace.xz
L1I D-JOLT instruction prefetcher has been constructed!
CPU 0 L1D next line prefetcher
Heartbeat CPU 0 instructions: 10000000 cycles: 3496549 heartbeat IPC: 2.85996 cumulative IPC: 2.85996 (Simulation time: 0 hr 1 min 7 sec) 
Heartbeat CPU 0 instructions: 20000000 cycles: 6993570 heartbeat IPC: 2.85958 cumulative IPC: 2.85977 (Simulation time: 0 hr 2 min 26 sec) 
Heartbeat CPU 0 instructions: 30000001 cycles: 10485640 heartbeat IPC: 2.86363 cumulative IPC: 2.86106 (Simulation time: 0 hr 3 min 57 sec) 
Heartbeat CPU 0 instructions: 40000000 cycles: 13783605 heartbeat IPC: 3.03217 cumulative IPC: 2.902 (Simulation time: 0 hr 4 min 38 sec) 
Heartbeat CPU 0 instructions: 50000002 cycles: 17019070 heartbeat IPC: 3.09075 cumulative IPC: 2.93788 (Simulation time: 0 hr 5 min 6 sec) 

Warmup complete CPU 0 instructions: 50000002 cycles: 17019070 (Simulation time: 0 hr 5 min 6 sec) 

Heartbeat CPU 0 instructions: 60000001 cycles: 24977256 heartbeat IPC: 1.25657 cumulative IPC: 1.25657 (Simulation time: 0 hr 5 min 42 sec) 
Heartbeat CPU 0 instructions: 70000001 cycles: 31759627 heartbeat IPC: 1.47441 cumulative IPC: 1.3568 (Simulation time: 0 hr 7 min 20 sec) 
Heartbeat CPU 0 instructions: 80000001 cycles: 38645469 heartbeat IPC: 1.45226 cumulative IPC: 1.38719 (Simulation time: 0 hr 9 min 0 sec) 
Heartbeat CPU 0 instructions: 90000000 cycles: 45304565 heartbeat IPC: 1.50171 cumulative IPC: 1.41415 (Simulation time: 0 hr 10 min 38 sec) 
Heartbeat CPU 0 instructions: 100000000 cycles: 52098160 heartbeat IPC: 1.47197 cumulative IPC: 1.42535 (Simulation time: 0 hr 12 min 15 sec) 
Finished CPU 0 instructions: 50000002 cycles: 35079091 cumulative IPC: 1.42535 (Simulation time: 0 hr 12 min 15 sec) 

ChampSim completed all CPUs

Region of Interest Statistics

CPU 0 cumulative IPC: 1.42535 instructions: 50000002 cycles: 35079091
L1D TOTAL     ACCESS:   17901849  HIT:   16634565  MISS:    1267284
L1D LOAD      ACCESS:    6494815  HIT:    5920511  MISS:     574304
L1D RFO       ACCESS:    5195499  HIT:    4973413  MISS:     222086
L1D PREFETCH  ACCESS:    6211535  HIT:    5740641  MISS:     470894
L1D WRITEBACK ACCESS:          0  HIT:          0  MISS:          0
L1D PREFETCH  REQUESTED:    6537497  ISSUED:    6431624  USEFUL:     111926  USELESS:     358987
L1D AVERAGE MISS LATENCY: 24.3772 cycles
L1I TOTAL     ACCESS:   14690684  HIT:   12253038  MISS:    2437646
L1I LOAD      ACCESS:    9877874  HIT:    9841670  MISS:      36204
L1I RFO       ACCESS:          0  HIT:          0  MISS:          0
L1I PREFETCH  ACCESS:    4812810  HIT:    2411368  MISS:    2401442
L1I WRITEBACK ACCESS:          0  HIT:          0  MISS:          0
L1I PREFETCH  REQUESTED:    5199003  ISSUED:    5101062  USEFUL:    2074071  USELESS:     327354
L1I AVERAGE MISS LATENCY: 19.9841 cycles
L2C TOTAL     ACCESS:    5146648  HIT:    4447974  MISS:     698674
L2C LOAD      ACCESS:     554435  HIT:     435365  MISS:     119070
L2C RFO       ACCESS:     220317  HIT:     155235  MISS:      65082
L2C PREFETCH  ACCESS:    3943677  HIT:    3433625  MISS:     510052
L2C WRITEBACK ACCESS:     428219  HIT:     423749  MISS:       4470
L2C PREFETCH  REQUESTED:    3606084  ISSUED:    3600390  USEFUL:      10235  USELESS:     498786
L2C AVERAGE MISS LATENCY: 38.9921 cycles
LLC TOTAL     ACCESS:    1824229  HIT:    1785485  MISS:      38744
LLC LOAD      ACCESS:     118877  HIT:     114445  MISS:       4432
LLC RFO       ACCESS:      65074  HIT:      51543  MISS:      13531
LLC PREFETCH  ACCESS:    1524029  HIT:    1503476  MISS:      20553
LLC WRITEBACK ACCESS:     116249  HIT:     116021  MISS:        228
LLC PREFETCH  REQUESTED:          0  ISSUED:          0  USEFUL:       1721  USELESS:      18325
LLC AVERAGE MISS LATENCY: 177.152 cycles
Major fault: 0 Minor fault: 2373
CPU 0 L1D next line prefetcher final stats

DRAM Statistics
 CHANNEL 0
 RQ ROW_BUFFER_HIT:      11670  ROW_BUFFER_MISS:      26825
 DBUS_CONGESTED:      23654
 WQ ROW_BUFFER_HIT:       1693  ROW_BUFFER_MISS:      15033  FULL:          0

 AVG_CONGESTED_CYCLE: 6

CPU 0 Branch Prediction Accuracy: 99.7225% MPKI: 0.50376 Average ROB Occupancy at Mispredict: 134.351

Branch types
NOT_BRANCH: 40924096 81.8482%
BRANCH_DIRECT_JUMP: 487048 0.974096%
BRANCH_INDIRECT: 169159 0.338318%
BRANCH_CONDITIONAL: 6640845 13.2817%
BRANCH_DIRECT_CALL: 755593 1.51119%
BRANCH_INDIRECT_CALL: 133962 0.267924%
BRANCH_RETURN: 889572 1.77914%
BRANCH_OTHER: 0 0%

