Initialize SIGNATURE TABLE
ST_SET: 1
ST_WAY: 256
ST_TAG_BIT: 16
ST_TAG_MASK: ffff

Initialize PATTERN TABLE
PT_SET: 512
PT_WAY: 4
SIG_DELTA_BIT: 7
C_SIG_BIT: 4
C_DELTA_BIT: 4

Initialize PREFETCH FILTER
FILTER_SET: 1024

*** ChampSim Multicore Out-of-Order Simulator ***

Warmup Instructions: 50000000
Simulation Instructions: 50000000
Number of CPUs: 1
LLC sets: 2048
LLC ways: 16
Off-chip DRAM Size: 4096 MB Channels: 1 Width: 64-bit Data Rate: 3200 MT/s

CPU 0 runs /Users/brandon/Documents/CoursesWi22/CSE240C/Homework1/ChampSim/ipc1_public/server_039.champsimtrace.xz
L1I D-JOLT instruction prefetcher has been constructed!
CPU 0 L1D next line prefetcher
Heartbeat CPU 0 instructions: 10000003 cycles: 3451550 heartbeat IPC: 2.89725 cumulative IPC: 2.89725 (Simulation time: 0 hr 0 min 37 sec) 
Heartbeat CPU 0 instructions: 20000002 cycles: 6896107 heartbeat IPC: 2.90313 cumulative IPC: 2.90019 (Simulation time: 0 hr 1 min 14 sec) 
Heartbeat CPU 0 instructions: 30000001 cycles: 10342476 heartbeat IPC: 2.9016 cumulative IPC: 2.90066 (Simulation time: 0 hr 1 min 51 sec) 
Heartbeat CPU 0 instructions: 40000002 cycles: 13784256 heartbeat IPC: 2.90547 cumulative IPC: 2.90186 (Simulation time: 0 hr 2 min 27 sec) 
Heartbeat CPU 0 instructions: 50000001 cycles: 17225402 heartbeat IPC: 2.90601 cumulative IPC: 2.90269 (Simulation time: 0 hr 3 min 2 sec) 

Warmup complete CPU 0 instructions: 50000001 cycles: 17225402 (Simulation time: 0 hr 3 min 2 sec) 

Heartbeat CPU 0 instructions: 60000000 cycles: 23019904 heartbeat IPC: 1.72577 cumulative IPC: 1.72577 (Simulation time: 0 hr 3 min 34 sec) 
Heartbeat CPU 0 instructions: 70000000 cycles: 28812819 heartbeat IPC: 1.72625 cumulative IPC: 1.72601 (Simulation time: 0 hr 4 min 4 sec) 
Heartbeat CPU 0 instructions: 80000000 cycles: 34601378 heartbeat IPC: 1.72755 cumulative IPC: 1.72652 (Simulation time: 0 hr 4 min 30 sec) 
Heartbeat CPU 0 instructions: 90000001 cycles: 40390016 heartbeat IPC: 1.72752 cumulative IPC: 1.72677 (Simulation time: 0 hr 4 min 52 sec) 
Heartbeat CPU 0 instructions: 100000002 cycles: 46183733 heartbeat IPC: 1.72601 cumulative IPC: 1.72662 (Simulation time: 0 hr 5 min 12 sec) 
Finished CPU 0 instructions: 50000001 cycles: 28958331 cumulative IPC: 1.72662 (Simulation time: 0 hr 5 min 12 sec) 

ChampSim completed all CPUs

Region of Interest Statistics

CPU 0 cumulative IPC: 1.72662 instructions: 50000001 cycles: 28958331
L1D TOTAL     ACCESS:   19899503  HIT:   19404806  MISS:     494697
L1D LOAD      ACCESS:    6498939  HIT:    6277369  MISS:     221570
L1D RFO       ACCESS:    7090224  HIT:    7023288  MISS:      66936
L1D PREFETCH  ACCESS:    6310340  HIT:    6104149  MISS:     206191
L1D WRITEBACK ACCESS:          0  HIT:          0  MISS:          0
L1D PREFETCH  REQUESTED:    6515054  ISSUED:    6382435  USEFUL:      50022  USELESS:     156173
L1D AVERAGE MISS LATENCY: 15.0923 cycles
L1I TOTAL     ACCESS:   19586681  HIT:   14386853  MISS:    5199828
L1I LOAD      ACCESS:    9347029  HIT:    9279203  MISS:      67826
L1I RFO       ACCESS:          0  HIT:          0  MISS:          0
L1I PREFETCH  ACCESS:   10239652  HIT:    5107650  MISS:    5132002
L1I WRITEBACK ACCESS:          0  HIT:          0  MISS:          0
L1I PREFETCH  REQUESTED:   10922201  ISSUED:   10536686  USEFUL:    4199118  USELESS:     932898
L1I AVERAGE MISS LATENCY: 14.6052 cycles
L2C TOTAL     ACCESS:    8252452  HIT:    8252377  MISS:         75
L2C LOAD      ACCESS:     284529  HIT:     284526  MISS:          3
L2C RFO       ACCESS:      66751  HIT:      66750  MISS:          1
L2C PREFETCH  ACCESS:    7721113  HIT:    7721042  MISS:         71
L2C WRITEBACK ACCESS:     180059  HIT:     180059  MISS:          0
L2C PREFETCH  REQUESTED:    5502873  ISSUED:    5500058  USEFUL:          1  USELESS:          2
L2C AVERAGE MISS LATENCY: 38.28 cycles
LLC TOTAL     ACCESS:     693312  HIT:     692926  MISS:        386
LLC LOAD      ACCESS:          3  HIT:          3  MISS:          0
LLC RFO       ACCESS:          1  HIT:          1  MISS:          0
LLC PREFETCH  ACCESS:     693307  HIT:     692921  MISS:        386
LLC WRITEBACK ACCESS:          1  HIT:          1  MISS:          0
LLC PREFETCH  REQUESTED:          0  ISSUED:          0  USEFUL:          3  USELESS:          0
LLC AVERAGE MISS LATENCY: 171.915 cycles
Major fault: 0 Minor fault: 357
CPU 0 L1D next line prefetcher final stats

DRAM Statistics
 CHANNEL 0
 RQ ROW_BUFFER_HIT:         32  ROW_BUFFER_MISS:        354
 DBUS_CONGESTED:         33
 WQ ROW_BUFFER_HIT:          0  ROW_BUFFER_MISS:          0  FULL:          0

 AVG_CONGESTED_CYCLE: 5

CPU 0 Branch Prediction Accuracy: 99.9091% MPKI: 0.1547 Average ROB Occupancy at Mispredict: 301.654

Branch types
NOT_BRANCH: 41494970 82.9899%
BRANCH_DIRECT_JUMP: 491308 0.982616%
BRANCH_INDIRECT: 0 0%
BRANCH_CONDITIONAL: 5595255 11.1905%
BRANCH_DIRECT_CALL: 1028408 2.05682%
BRANCH_INDIRECT_CALL: 180756 0.361512%
BRANCH_RETURN: 1209170 2.41834%
BRANCH_OTHER: 0 0%

