Initialize SIGNATURE TABLE
ST_SET: 1
ST_WAY: 256
ST_TAG_BIT: 16
ST_TAG_MASK: ffff

Initialize PATTERN TABLE
PT_SET: 512
PT_WAY: 4
SIG_DELTA_BIT: 7
C_SIG_BIT: 4
C_DELTA_BIT: 4

Initialize PREFETCH FILTER
FILTER_SET: 1024

*** ChampSim Multicore Out-of-Order Simulator ***

Warmup Instructions: 50000000
Simulation Instructions: 50000000
Number of CPUs: 1
LLC sets: 2048
LLC ways: 16
Off-chip DRAM Size: 4096 MB Channels: 1 Width: 64-bit Data Rate: 3200 MT/s

CPU 0 runs /Users/brandon/Documents/CoursesWi22/CSE240C/Homework1/ChampSim/ipc1_public/server_018.champsimtrace.xz
L1I D-JOLT instruction prefetcher has been constructed!
CPU 0 L1D next line prefetcher
Heartbeat CPU 0 instructions: 10000003 cycles: 3616676 heartbeat IPC: 2.76497 cumulative IPC: 2.76497 (Simulation time: 0 hr 1 min 30 sec) 
Heartbeat CPU 0 instructions: 20000001 cycles: 7238660 heartbeat IPC: 2.76092 cumulative IPC: 2.76294 (Simulation time: 0 hr 3 min 7 sec) 
Heartbeat CPU 0 instructions: 30000003 cycles: 10714102 heartbeat IPC: 2.87733 cumulative IPC: 2.80005 (Simulation time: 0 hr 4 min 39 sec) 
Heartbeat CPU 0 instructions: 40000000 cycles: 14226523 heartbeat IPC: 2.84704 cumulative IPC: 2.81165 (Simulation time: 0 hr 6 min 10 sec) 
Heartbeat CPU 0 instructions: 50000003 cycles: 17845162 heartbeat IPC: 2.76347 cumulative IPC: 2.80188 (Simulation time: 0 hr 7 min 46 sec) 

Warmup complete CPU 0 instructions: 50000003 cycles: 17845162 (Simulation time: 0 hr 7 min 46 sec) 

Heartbeat CPU 0 instructions: 60000000 cycles: 35548056 heartbeat IPC: 0.564879 cumulative IPC: 0.564879 (Simulation time: 0 hr 9 min 56 sec) 
Heartbeat CPU 0 instructions: 70000001 cycles: 53378561 heartbeat IPC: 0.560837 cumulative IPC: 0.562851 (Simulation time: 0 hr 12 min 10 sec) 
Heartbeat CPU 0 instructions: 80000000 cycles: 71092988 heartbeat IPC: 0.564512 cumulative IPC: 0.563403 (Simulation time: 0 hr 14 min 25 sec) 
Heartbeat CPU 0 instructions: 90000002 cycles: 88961472 heartbeat IPC: 0.559645 cumulative IPC: 0.562459 (Simulation time: 0 hr 16 min 18 sec) 
Heartbeat CPU 0 instructions: 100000001 cycles: 106775838 heartbeat IPC: 0.561345 cumulative IPC: 0.562236 (Simulation time: 0 hr 17 min 1 sec) 
Finished CPU 0 instructions: 50000002 cycles: 88930677 cumulative IPC: 0.562236 (Simulation time: 0 hr 17 min 1 sec) 

ChampSim completed all CPUs

Region of Interest Statistics

CPU 0 cumulative IPC: 0.562236 instructions: 50000002 cycles: 88930677
L1D TOTAL     ACCESS:   18626872  HIT:   16409208  MISS:    2217664
L1D LOAD      ACCESS:    7043949  HIT:    6314991  MISS:     728958
L1D RFO       ACCESS:    5818625  HIT:    4866201  MISS:     952424
L1D PREFETCH  ACCESS:    5764298  HIT:    5228016  MISS:     536282
L1D WRITEBACK ACCESS:          0  HIT:          0  MISS:          0
L1D PREFETCH  REQUESTED:    7085449  ISSUED:    6881524  USEFUL:     196560  USELESS:     339811
L1D AVERAGE MISS LATENCY: 177.481 cycles
L1I TOTAL     ACCESS:   18423659  HIT:   15075280  MISS:    3348379
L1I LOAD      ACCESS:   10147204  HIT:   10100985  MISS:      46219
L1I RFO       ACCESS:          0  HIT:          0  MISS:          0
L1I PREFETCH  ACCESS:    8276455  HIT:    4974295  MISS:    3302160
L1I WRITEBACK ACCESS:          0  HIT:          0  MISS:          0
L1I PREFETCH  REQUESTED:    8853159  ISSUED:    8779947  USEFUL:    2689677  USELESS:     612392
L1I AVERAGE MISS LATENCY: 18.0216 cycles
L2C TOTAL     ACCESS:    8140738  HIT:    6275859  MISS:    1864879
L2C LOAD      ACCESS:     541702  HIT:     276367  MISS:     265335
L2C RFO       ACCESS:     951739  HIT:      22173  MISS:     929566
L2C PREFETCH  ACCESS:    5477249  HIT:    4810240  MISS:     667009
L2C WRITEBACK ACCESS:    1170048  HIT:    1167079  MISS:       2969
L2C PREFETCH  REQUESTED:    4620396  ISSUED:    4616414  USEFUL:      21145  USELESS:     646898
L2C AVERAGE MISS LATENCY: 217.813 cycles
LLC TOTAL     ACCESS:    4189900  HIT:    2723902  MISS:    1465998
LLC LOAD      ACCESS:     265305  HIT:     164908  MISS:     100397
LLC RFO       ACCESS:     929562  HIT:     132256  MISS:     797306
LLC PREFETCH  ACCESS:    1894638  HIT:    1328426  MISS:     566212
LLC WRITEBACK ACCESS:    1100395  HIT:    1098312  MISS:       2083
LLC PREFETCH  REQUESTED:          0  ISSUED:          0  USEFUL:      30724  USELESS:     535608
LLC AVERAGE MISS LATENCY: 282.116 cycles
Major fault: 0 Minor fault: 22445
CPU 0 L1D next line prefetcher final stats

DRAM Statistics
 CHANNEL 0
 RQ ROW_BUFFER_HIT:     413146  ROW_BUFFER_MISS:    1050376
 DBUS_CONGESTED:    1452257
 WQ ROW_BUFFER_HIT:     267758  ROW_BUFFER_MISS:     632625  FULL:          0

 AVG_CONGESTED_CYCLE: 6

CPU 0 Branch Prediction Accuracy: 99.7114% MPKI: 0.47678 Average ROB Occupancy at Mispredict: 212.958

Branch types
NOT_BRANCH: 41741008 83.482%
BRANCH_DIRECT_JUMP: 458652 0.917304%
BRANCH_INDIRECT: 48282 0.096564%
BRANCH_CONDITIONAL: 5930881 11.8618%
BRANCH_DIRECT_CALL: 744230 1.48846%
BRANCH_INDIRECT_CALL: 166336 0.332672%
BRANCH_RETURN: 910589 1.82118%
BRANCH_OTHER: 0 0%

