Initialize SIGNATURE TABLE
ST_SET: 1
ST_WAY: 256
ST_TAG_BIT: 16
ST_TAG_MASK: ffff

Initialize PATTERN TABLE
PT_SET: 512
PT_WAY: 4
SIG_DELTA_BIT: 7
C_SIG_BIT: 4
C_DELTA_BIT: 4

Initialize PREFETCH FILTER
FILTER_SET: 1024

*** ChampSim Multicore Out-of-Order Simulator ***

Warmup Instructions: 50000000
Simulation Instructions: 50000000
Number of CPUs: 1
LLC sets: 2048
LLC ways: 16
Off-chip DRAM Size: 4096 MB Channels: 1 Width: 64-bit Data Rate: 3200 MT/s

CPU 0 runs /Users/brandon/Documents/CoursesWi22/CSE240C/Homework1/ChampSim/ipc1_public/server_026.champsimtrace.xz
L1I D-JOLT instruction prefetcher has been constructed!
CPU 0 L1D next line prefetcher
Heartbeat CPU 0 instructions: 10000000 cycles: 3524480 heartbeat IPC: 2.8373 cumulative IPC: 2.8373 (Simulation time: 0 hr 1 min 29 sec) 
Heartbeat CPU 0 instructions: 20000002 cycles: 7054744 heartbeat IPC: 2.83265 cumulative IPC: 2.83497 (Simulation time: 0 hr 3 min 4 sec) 
Heartbeat CPU 0 instructions: 30000000 cycles: 10574486 heartbeat IPC: 2.84112 cumulative IPC: 2.83702 (Simulation time: 0 hr 4 min 40 sec) 
Heartbeat CPU 0 instructions: 40000003 cycles: 14103299 heartbeat IPC: 2.83381 cumulative IPC: 2.83622 (Simulation time: 0 hr 6 min 12 sec) 
Heartbeat CPU 0 instructions: 50000000 cycles: 17624992 heartbeat IPC: 2.83954 cumulative IPC: 2.83688 (Simulation time: 0 hr 7 min 43 sec) 

Warmup complete CPU 0 instructions: 50000004 cycles: 17624993 (Simulation time: 0 hr 7 min 43 sec) 

*** Reached end of trace for Core: 0 Repeating trace: /Users/brandon/Documents/CoursesWi22/CSE240C/Homework1/ChampSim/ipc1_public/server_026.champsimtrace.xz
Heartbeat CPU 0 instructions: 60000000 cycles: 24545555 heartbeat IPC: 1.44497 cumulative IPC: 1.44497 (Simulation time: 0 hr 9 min 18 sec) 
Heartbeat CPU 0 instructions: 70000003 cycles: 31351439 heartbeat IPC: 1.46932 cumulative IPC: 1.45704 (Simulation time: 0 hr 10 min 55 sec) 
Heartbeat CPU 0 instructions: 80000002 cycles: 38253985 heartbeat IPC: 1.44874 cumulative IPC: 1.45426 (Simulation time: 0 hr 12 min 35 sec) 
Heartbeat CPU 0 instructions: 90000002 cycles: 45050476 heartbeat IPC: 1.47135 cumulative IPC: 1.4585 (Simulation time: 0 hr 14 min 12 sec) 
Heartbeat CPU 0 instructions: 100000000 cycles: 51941088 heartbeat IPC: 1.45125 cumulative IPC: 1.45704 (Simulation time: 0 hr 15 min 52 sec) 
Finished CPU 0 instructions: 50000000 cycles: 34316096 cumulative IPC: 1.45704 (Simulation time: 0 hr 15 min 52 sec) 

ChampSim completed all CPUs

Region of Interest Statistics

CPU 0 cumulative IPC: 1.45704 instructions: 50000000 cycles: 34316096
L1D TOTAL     ACCESS:   19768420  HIT:   18123463  MISS:    1644957
L1D LOAD      ACCESS:    6930439  HIT:    6201606  MISS:     728833
L1D RFO       ACCESS:    6244450  HIT:    5958203  MISS:     286247
L1D PREFETCH  ACCESS:    6593531  HIT:    5963654  MISS:     629877
L1D WRITEBACK ACCESS:          0  HIT:          0  MISS:          0
L1D PREFETCH  REQUESTED:    6976338  ISSUED:    6833687  USEFUL:     152369  USELESS:     477518
L1D AVERAGE MISS LATENCY: 24.0748 cycles
L1I TOTAL     ACCESS:   15748052  HIT:   12548443  MISS:    3199609
L1I LOAD      ACCESS:    9504371  HIT:    9452978  MISS:      51393
L1I RFO       ACCESS:          0  HIT:          0  MISS:          0
L1I PREFETCH  ACCESS:    6243681  HIT:    3095465  MISS:    3148216
L1I WRITEBACK ACCESS:          0  HIT:          0  MISS:          0
L1I PREFETCH  REQUESTED:    6705931  ISSUED:    6608573  USEFUL:    2739804  USELESS:     408395
L1I AVERAGE MISS LATENCY: 19.8528 cycles
L2C TOTAL     ACCESS:    6728983  HIT:    5835598  MISS:     893385
L2C LOAD      ACCESS:     728002  HIT:     579888  MISS:     148114
L2C RFO       ACCESS:     284668  HIT:     195739  MISS:      88929
L2C PREFETCH  ACCESS:    5155137  HIT:    4504980  MISS:     650157
L2C WRITEBACK ACCESS:     561176  HIT:     554991  MISS:       6185
L2C PREFETCH  REQUESTED:    4628374  ISSUED:    4617592  USEFUL:      12486  USELESS:     637464
L2C AVERAGE MISS LATENCY: 37.6568 cycles
LLC TOTAL     ACCESS:    2360186  HIT:    2323177  MISS:      37009
LLC LOAD      ACCESS:     147851  HIT:     144346  MISS:       3505
LLC RFO       ACCESS:      88929  HIT:      74277  MISS:      14652
LLC PREFETCH  ACCESS:    1968394  HIT:    1949768  MISS:      18626
LLC WRITEBACK ACCESS:     155012  HIT:     154786  MISS:        226
LLC PREFETCH  REQUESTED:          0  ISSUED:          0  USEFUL:       1123  USELESS:      17316
LLC AVERAGE MISS LATENCY: 188.396 cycles
Major fault: 0 Minor fault: 2173
CPU 0 L1D next line prefetcher final stats

DRAM Statistics
 CHANNEL 0
 RQ ROW_BUFFER_HIT:      12676  ROW_BUFFER_MISS:      24095
 DBUS_CONGESTED:      23765
 WQ ROW_BUFFER_HIT:       1602  ROW_BUFFER_MISS:      14771  FULL:          0

 AVG_CONGESTED_CYCLE: 6

CPU 0 Branch Prediction Accuracy: 99.822% MPKI: 0.32584 Average ROB Occupancy at Mispredict: 202.06

Branch types
NOT_BRANCH: 40848574 81.6971%
BRANCH_DIRECT_JUMP: 522045 1.04409%
BRANCH_INDIRECT: 204034 0.408068%
BRANCH_CONDITIONAL: 6212963 12.4259%
BRANCH_DIRECT_CALL: 932393 1.86479%
BRANCH_INDIRECT_CALL: 173764 0.347528%
BRANCH_RETURN: 1106152 2.2123%
BRANCH_OTHER: 0 0%

