Initialize SIGNATURE TABLE
ST_SET: 1
ST_WAY: 256
ST_TAG_BIT: 16
ST_TAG_MASK: ffff

Initialize PATTERN TABLE
PT_SET: 512
PT_WAY: 4
SIG_DELTA_BIT: 7
C_SIG_BIT: 4
C_DELTA_BIT: 4

Initialize PREFETCH FILTER
FILTER_SET: 1024

*** ChampSim Multicore Out-of-Order Simulator ***

Warmup Instructions: 50000000
Simulation Instructions: 50000000
Number of CPUs: 1
LLC sets: 2048
LLC ways: 16
Off-chip DRAM Size: 4096 MB Channels: 1 Width: 64-bit Data Rate: 3200 MT/s

CPU 0 runs /Users/brandon/Documents/CoursesWi22/CSE240C/Homework1/ChampSim/ipc1_public/server_010.champsimtrace.xz
L1I D-JOLT instruction prefetcher has been constructed!
CPU 0 L1D next line prefetcher
Heartbeat CPU 0 instructions: 10000000 cycles: 3194844 heartbeat IPC: 3.13004 cumulative IPC: 3.13004 (Simulation time: 0 hr 1 min 3 sec) 
Heartbeat CPU 0 instructions: 20000002 cycles: 6386443 heartbeat IPC: 3.13323 cumulative IPC: 3.13163 (Simulation time: 0 hr 2 min 18 sec) 
Heartbeat CPU 0 instructions: 30000001 cycles: 9580694 heartbeat IPC: 3.13062 cumulative IPC: 3.1313 (Simulation time: 0 hr 3 min 44 sec) 
Heartbeat CPU 0 instructions: 40000000 cycles: 12771958 heartbeat IPC: 3.13355 cumulative IPC: 3.13186 (Simulation time: 0 hr 5 min 10 sec) 
Heartbeat CPU 0 instructions: 50000003 cycles: 15968831 heartbeat IPC: 3.12806 cumulative IPC: 3.1311 (Simulation time: 0 hr 6 min 39 sec) 

Warmup complete CPU 0 instructions: 50000003 cycles: 15968831 (Simulation time: 0 hr 6 min 39 sec) 

Heartbeat CPU 0 instructions: 60000001 cycles: 23178960 heartbeat IPC: 1.38694 cumulative IPC: 1.38694 (Simulation time: 0 hr 8 min 2 sec) 
Heartbeat CPU 0 instructions: 70000000 cycles: 30452716 heartbeat IPC: 1.37481 cumulative IPC: 1.38084 (Simulation time: 0 hr 9 min 26 sec) 
Heartbeat CPU 0 instructions: 80000003 cycles: 37748390 heartbeat IPC: 1.37068 cumulative IPC: 1.37744 (Simulation time: 0 hr 10 min 49 sec) 
Heartbeat CPU 0 instructions: 90000002 cycles: 44823041 heartbeat IPC: 1.4135 cumulative IPC: 1.38628 (Simulation time: 0 hr 12 min 9 sec) 
Heartbeat CPU 0 instructions: 100000003 cycles: 65450708 heartbeat IPC: 0.484786 cumulative IPC: 1.01047 (Simulation time: 0 hr 13 min 51 sec) 
Finished CPU 0 instructions: 50000000 cycles: 49481877 cumulative IPC: 1.01047 (Simulation time: 0 hr 13 min 51 sec) 

ChampSim completed all CPUs

Region of Interest Statistics

CPU 0 cumulative IPC: 1.01047 instructions: 50000000 cycles: 49481877
L1D TOTAL     ACCESS:   19896577  HIT:   16671420  MISS:    3225157
L1D LOAD      ACCESS:    7704361  HIT:    6111071  MISS:    1593290
L1D RFO       ACCESS:    4712777  HIT:    4618503  MISS:      94274
L1D PREFETCH  ACCESS:    7479439  HIT:    5941846  MISS:    1537593
L1D WRITEBACK ACCESS:          0  HIT:          0  MISS:          0
L1D PREFETCH  REQUESTED:    7736645  ISSUED:    7639829  USEFUL:     117068  USELESS:    1420497
L1D AVERAGE MISS LATENCY: 22.7967 cycles
L1I TOTAL     ACCESS:   16601408  HIT:   14911969  MISS:    1689439
L1I LOAD      ACCESS:    9985961  HIT:    9917349  MISS:      68612
L1I RFO       ACCESS:          0  HIT:          0  MISS:          0
L1I PREFETCH  ACCESS:    6615447  HIT:    4994620  MISS:    1620827
L1I WRITEBACK ACCESS:          0  HIT:          0  MISS:          0
L1I PREFETCH  REQUESTED:    7248440  ISSUED:    6938734  USEFUL:    1196248  USELESS:     424529
L1I AVERAGE MISS LATENCY: 30.9207 cycles
L2C TOTAL     ACCESS:    6343800  HIT:    5194867  MISS:    1148933
L2C LOAD      ACCESS:    1607816  HIT:    1372308  MISS:     235508
L2C RFO       ACCESS:      93281  HIT:      48973  MISS:      44308
L2C PREFETCH  ACCESS:    4377366  HIT:    3509701  MISS:     867665
L2C WRITEBACK ACCESS:     265337  HIT:     263885  MISS:       1452
L2C PREFETCH  REQUESTED:    5302299  ISSUED:    5299133  USEFUL:      22506  USELESS:     846368
L2C AVERAGE MISS LATENCY: 45.7839 cycles
LLC TOTAL     ACCESS:    2382599  HIT:    2250309  MISS:     132290
LLC LOAD      ACCESS:     235449  HIT:     217863  MISS:      17586
LLC RFO       ACCESS:      44308  HIT:      34994  MISS:       9314
LLC PREFETCH  ACCESS:    1952519  HIT:    1847382  MISS:     105137
LLC WRITEBACK ACCESS:     150323  HIT:     150070  MISS:        253
LLC PREFETCH  REQUESTED:          0  ISSUED:          0  USEFUL:       9839  USELESS:      95814
LLC AVERAGE MISS LATENCY: 174.065 cycles
Major fault: 0 Minor fault: 5606
CPU 0 L1D next line prefetcher final stats

DRAM Statistics
 CHANNEL 0
 RQ ROW_BUFFER_HIT:      20860  ROW_BUFFER_MISS:     111160
 DBUS_CONGESTED:      55943
 WQ ROW_BUFFER_HIT:      10244  ROW_BUFFER_MISS:      43981  FULL:          0

 AVG_CONGESTED_CYCLE: 5

CPU 0 Branch Prediction Accuracy: 99.5528% MPKI: 0.89798 Average ROB Occupancy at Mispredict: 131.04

Branch types
NOT_BRANCH: 39958788 79.9176%
BRANCH_DIRECT_JUMP: 449946 0.899892%
BRANCH_INDIRECT: 140210 0.28042%
BRANCH_CONDITIONAL: 7679677 15.3594%
BRANCH_DIRECT_CALL: 701578 1.40316%
BRANCH_INDIRECT_CALL: 168971 0.337942%
BRANCH_RETURN: 900560 1.80112%
BRANCH_OTHER: 0 0%

