Initialize SIGNATURE TABLE
ST_SET: 1
ST_WAY: 256
ST_TAG_BIT: 16
ST_TAG_MASK: ffff

Initialize PATTERN TABLE
PT_SET: 512
PT_WAY: 4
SIG_DELTA_BIT: 7
C_SIG_BIT: 4
C_DELTA_BIT: 4

Initialize PREFETCH FILTER
FILTER_SET: 1024

*** ChampSim Multicore Out-of-Order Simulator ***

Warmup Instructions: 50000000
Simulation Instructions: 50000000
Number of CPUs: 1
LLC sets: 2048
LLC ways: 16
Off-chip DRAM Size: 4096 MB Channels: 1 Width: 64-bit Data Rate: 3200 MT/s

CPU 0 runs /Users/brandon/Documents/CoursesWi22/CSE240C/Homework1/ChampSim/ipc1_public/server_024.champsimtrace.xz
L1I D-JOLT instruction prefetcher has been constructed!
CPU 0 L1D next line prefetcher
Heartbeat CPU 0 instructions: 10000000 cycles: 3498824 heartbeat IPC: 2.8581 cumulative IPC: 2.8581 (Simulation time: 0 hr 1 min 28 sec) 
Heartbeat CPU 0 instructions: 20000002 cycles: 6990403 heartbeat IPC: 2.86403 cumulative IPC: 2.86107 (Simulation time: 0 hr 3 min 0 sec) 
Heartbeat CPU 0 instructions: 30000000 cycles: 10492017 heartbeat IPC: 2.85583 cumulative IPC: 2.85932 (Simulation time: 0 hr 4 min 35 sec) 
Heartbeat CPU 0 instructions: 40000000 cycles: 13991077 heartbeat IPC: 2.85791 cumulative IPC: 2.85896 (Simulation time: 0 hr 6 min 5 sec) 
Heartbeat CPU 0 instructions: 50000001 cycles: 17480567 heartbeat IPC: 2.86575 cumulative IPC: 2.86032 (Simulation time: 0 hr 7 min 34 sec) 

Warmup complete CPU 0 instructions: 50000001 cycles: 17480567 (Simulation time: 0 hr 7 min 34 sec) 

Heartbeat CPU 0 instructions: 60000002 cycles: 24230170 heartbeat IPC: 1.48157 cumulative IPC: 1.48157 (Simulation time: 0 hr 9 min 6 sec) 
Heartbeat CPU 0 instructions: 70000000 cycles: 31013738 heartbeat IPC: 1.47415 cumulative IPC: 1.47785 (Simulation time: 0 hr 10 min 39 sec) 
*** Reached end of trace for Core: 0 Repeating trace: /Users/brandon/Documents/CoursesWi22/CSE240C/Homework1/ChampSim/ipc1_public/server_024.champsimtrace.xz
Heartbeat CPU 0 instructions: 80000003 cycles: 37778015 heartbeat IPC: 1.47836 cumulative IPC: 1.47802 (Simulation time: 0 hr 12 min 14 sec) 
Heartbeat CPU 0 instructions: 90000003 cycles: 44601255 heartbeat IPC: 1.46558 cumulative IPC: 1.47489 (Simulation time: 0 hr 13 min 51 sec) 
Heartbeat CPU 0 instructions: 100000002 cycles: 51383325 heartbeat IPC: 1.47448 cumulative IPC: 1.47481 (Simulation time: 0 hr 15 min 30 sec) 
Finished CPU 0 instructions: 50000001 cycles: 33902758 cumulative IPC: 1.47481 (Simulation time: 0 hr 15 min 30 sec) 

ChampSim completed all CPUs

Region of Interest Statistics

CPU 0 cumulative IPC: 1.47481 instructions: 50000001 cycles: 33902758
L1D TOTAL     ACCESS:   19649015  HIT:   18131555  MISS:    1517460
L1D LOAD      ACCESS:    6915736  HIT:    6235079  MISS:     680657
L1D RFO       ACCESS:    6149735  HIT:    5875526  MISS:     274209
L1D PREFETCH  ACCESS:    6583544  HIT:    6020950  MISS:     562594
L1D WRITEBACK ACCESS:          0  HIT:          0  MISS:          0
L1D PREFETCH  REQUESTED:    6969830  ISSUED:    6847339  USEFUL:     135381  USELESS:     427218
L1D AVERAGE MISS LATENCY: 25.8215 cycles
L1I TOTAL     ACCESS:   15128046  HIT:   12177759  MISS:    2950287
L1I LOAD      ACCESS:    9331892  HIT:    9288387  MISS:      43505
L1I RFO       ACCESS:          0  HIT:          0  MISS:          0
L1I PREFETCH  ACCESS:    5796154  HIT:    2889372  MISS:    2906782
L1I WRITEBACK ACCESS:          0  HIT:          0  MISS:          0
L1I PREFETCH  REQUESTED:    6222645  ISSUED:    6129578  USEFUL:    2493983  USELESS:     412791
L1I AVERAGE MISS LATENCY: 19.6198 cycles
L2C TOTAL     ACCESS:    6188189  HIT:    5374417  MISS:     813772
L2C LOAD      ACCESS:     657790  HIT:     510529  MISS:     147261
L2C RFO       ACCESS:     272213  HIT:     184011  MISS:      88202
L2C PREFETCH  ACCESS:    4738013  HIT:    4162921  MISS:     575092
L2C WRITEBACK ACCESS:     520173  HIT:     516956  MISS:       3217
L2C PREFETCH  REQUESTED:    4180438  ISSUED:    4173411  USEFUL:      11603  USELESS:     563170
L2C AVERAGE MISS LATENCY: 41.7944 cycles
LLC TOTAL     ACCESS:    2125598  HIT:    2072288  MISS:      53310
LLC LOAD      ACCESS:     146981  HIT:     141417  MISS:       5564
LLC RFO       ACCESS:      88159  HIT:      65941  MISS:      22218
LLC PREFETCH  ACCESS:    1742335  HIT:    1717087  MISS:      25248
LLC WRITEBACK ACCESS:     148123  HIT:     147843  MISS:        280
LLC PREFETCH  REQUESTED:          0  ISSUED:          0  USEFUL:       1948  USELESS:      23100
LLC AVERAGE MISS LATENCY: 197.331 cycles
Major fault: 0 Minor fault: 2374
CPU 0 L1D next line prefetcher final stats

DRAM Statistics
 CHANNEL 0
 RQ ROW_BUFFER_HIT:      18027  ROW_BUFFER_MISS:      34993
 DBUS_CONGESTED:      37899
 WQ ROW_BUFFER_HIT:       2676  ROW_BUFFER_MISS:      23079  FULL:          0

 AVG_CONGESTED_CYCLE: 6

CPU 0 Branch Prediction Accuracy: 99.7477% MPKI: 0.46156 Average ROB Occupancy at Mispredict: 176.313

Branch types
NOT_BRANCH: 40853597 81.7072%
BRANCH_DIRECT_JUMP: 566815 1.13363%
BRANCH_INDIRECT: 197171 0.394342%
BRANCH_CONDITIONAL: 6308406 12.6168%
BRANCH_DIRECT_CALL: 876399 1.7528%
BRANCH_INDIRECT_CALL: 160491 0.320982%
BRANCH_RETURN: 1036885 2.07377%
BRANCH_OTHER: 0 0%

