Initialize SIGNATURE TABLE
ST_SET: 1
ST_WAY: 256
ST_TAG_BIT: 16
ST_TAG_MASK: ffff

Initialize PATTERN TABLE
PT_SET: 512
PT_WAY: 4
SIG_DELTA_BIT: 7
C_SIG_BIT: 4
C_DELTA_BIT: 4

Initialize PREFETCH FILTER
FILTER_SET: 1024

*** ChampSim Multicore Out-of-Order Simulator ***

Warmup Instructions: 50000000
Simulation Instructions: 50000000
Number of CPUs: 1
LLC sets: 2048
LLC ways: 16
Off-chip DRAM Size: 4096 MB Channels: 1 Width: 64-bit Data Rate: 3200 MT/s

CPU 0 runs /Users/brandon/Documents/CoursesWi22/CSE240C/Homework1/ChampSim/ipc1_public/spec_gcc_003.champsimtrace.xz
L1I D-JOLT instruction prefetcher has been constructed!
CPU 0 L1D next line prefetcher
Heartbeat CPU 0 instructions: 10000001 cycles: 3491876 heartbeat IPC: 2.86379 cumulative IPC: 2.86379 (Simulation time: 0 hr 0 min 27 sec) 
Heartbeat CPU 0 instructions: 20000000 cycles: 6960130 heartbeat IPC: 2.88329 cumulative IPC: 2.87351 (Simulation time: 0 hr 0 min 53 sec) 
Heartbeat CPU 0 instructions: 30000002 cycles: 10402314 heartbeat IPC: 2.90513 cumulative IPC: 2.88397 (Simulation time: 0 hr 1 min 18 sec) 
Heartbeat CPU 0 instructions: 40000000 cycles: 13867400 heartbeat IPC: 2.88593 cumulative IPC: 2.88446 (Simulation time: 0 hr 1 min 43 sec) 
Heartbeat CPU 0 instructions: 50000001 cycles: 17175546 heartbeat IPC: 3.02284 cumulative IPC: 2.91112 (Simulation time: 0 hr 2 min 8 sec) 

Warmup complete CPU 0 instructions: 50000001 cycles: 17175546 (Simulation time: 0 hr 2 min 8 sec) 

Heartbeat CPU 0 instructions: 60000000 cycles: 56420876 heartbeat IPC: 0.254807 cumulative IPC: 0.254807 (Simulation time: 0 hr 3 min 14 sec) 
Heartbeat CPU 0 instructions: 70000000 cycles: 98376982 heartbeat IPC: 0.238344 cumulative IPC: 0.246301 (Simulation time: 0 hr 4 min 14 sec) 
Heartbeat CPU 0 instructions: 80000003 cycles: 141182309 heartbeat IPC: 0.233616 cumulative IPC: 0.241922 (Simulation time: 0 hr 5 min 0 sec) 
Heartbeat CPU 0 instructions: 90000002 cycles: 176960075 heartbeat IPC: 0.279503 cumulative IPC: 0.250337 (Simulation time: 0 hr 5 min 33 sec) 
Heartbeat CPU 0 instructions: 100000000 cycles: 222339220 heartbeat IPC: 0.220365 cumulative IPC: 0.243708 (Simulation time: 0 hr 6 min 8 sec) 
Finished CPU 0 instructions: 50000000 cycles: 205163675 cumulative IPC: 0.243708 (Simulation time: 0 hr 6 min 8 sec) 

ChampSim completed all CPUs

Region of Interest Statistics

CPU 0 cumulative IPC: 0.243708 instructions: 50000000 cycles: 205163675
L1D TOTAL     ACCESS:   16802345  HIT:   11078082  MISS:    5724263
L1D LOAD      ACCESS:    4545225  HIT:    4162160  MISS:     383065
L1D RFO       ACCESS:    8201344  HIT:    3149711  MISS:    5051633
L1D PREFETCH  ACCESS:    4055776  HIT:    3766211  MISS:     289565
L1D WRITEBACK ACCESS:          0  HIT:          0  MISS:          0
L1D PREFETCH  REQUESTED:    4562602  ISSUED:    4502782  USEFUL:     152238  USELESS:     137507
L1D AVERAGE MISS LATENCY: 488.137 cycles
L1I TOTAL     ACCESS:   15758605  HIT:   14392169  MISS:    1366436
L1I LOAD      ACCESS:   11271556  HIT:   11209825  MISS:      61731
L1I RFO       ACCESS:          0  HIT:          0  MISS:          0
L1I PREFETCH  ACCESS:    4487049  HIT:    3182344  MISS:    1304705
L1I WRITEBACK ACCESS:          0  HIT:          0  MISS:          0
L1I PREFETCH  REQUESTED:    5201699  ISSUED:    4930476  USEFUL:     806320  USELESS:     498353
L1I AVERAGE MISS LATENCY: 58.3369 cycles
L2C TOTAL     ACCESS:   12659504  HIT:    6565053  MISS:    6094451
L2C LOAD      ACCESS:     232839  HIT:      64169  MISS:     168670
L2C RFO       ACCESS:    5049852  HIT:       6432  MISS:    5043420
L2C PREFETCH  ACCESS:    2218933  HIT:    1336717  MISS:     882216
L2C WRITEBACK ACCESS:    5157880  HIT:    5157735  MISS:        145
L2C PREFETCH  REQUESTED:    1999399  ISSUED:    1999390  USEFUL:      24613  USELESS:     854862
L2C AVERAGE MISS LATENCY: 458.507 cycles
LLC TOTAL     ACCESS:   11988844  HIT:    7354032  MISS:    4634812
LLC LOAD      ACCESS:     168607  HIT:     127325  MISS:      41282
LLC RFO       ACCESS:    5043420  HIT:     753686  MISS:    4289734
LLC PREFETCH  ACCESS:    1643229  HIT:    1339433  MISS:     303796
LLC WRITEBACK ACCESS:    5133588  HIT:    5133588  MISS:          0
LLC PREFETCH  REQUESTED:          0  ISSUED:          0  USEFUL:      11772  USELESS:     291870
LLC AVERAGE MISS LATENCY: 573.354 cycles
Major fault: 0 Minor fault: 2819
CPU 0 L1D next line prefetcher final stats

DRAM Statistics
 CHANNEL 0
 RQ ROW_BUFFER_HIT:    1407642  ROW_BUFFER_MISS:    3227079
 DBUS_CONGESTED:    7946797
 WQ ROW_BUFFER_HIT:    1142827  ROW_BUFFER_MISS:    3175975  FULL:          0

 AVG_CONGESTED_CYCLE: 6

CPU 0 Branch Prediction Accuracy: 99.665% MPKI: 0.78342 Average ROB Occupancy at Mispredict: 124.305

Branch types
NOT_BRANCH: 38305858 76.6117%
BRANCH_DIRECT_JUMP: 384281 0.768562%
BRANCH_INDIRECT: 71949 0.143898%
BRANCH_CONDITIONAL: 9879825 19.7597%
BRANCH_DIRECT_CALL: 650586 1.30117%
BRANCH_INDIRECT_CALL: 28456 0.056912%
BRANCH_RETURN: 679046 1.35809%
BRANCH_OTHER: 0 0%

