Initialize SIGNATURE TABLE
ST_SET: 1
ST_WAY: 256
ST_TAG_BIT: 16
ST_TAG_MASK: ffff

Initialize PATTERN TABLE
PT_SET: 512
PT_WAY: 4
SIG_DELTA_BIT: 7
C_SIG_BIT: 4
C_DELTA_BIT: 4

Initialize PREFETCH FILTER
FILTER_SET: 1024

*** ChampSim Multicore Out-of-Order Simulator ***

Warmup Instructions: 50000000
Simulation Instructions: 50000000
Number of CPUs: 1
LLC sets: 2048
LLC ways: 16
Off-chip DRAM Size: 4096 MB Channels: 1 Width: 64-bit Data Rate: 3200 MT/s

CPU 0 runs /Users/brandon/Documents/CoursesWi22/CSE240C/Homework1/ChampSim/ipc1_public/spec_gobmk_001.champsimtrace.xz
L1I D-JOLT instruction prefetcher has been constructed!
CPU 0 L1D next line prefetcher
Heartbeat CPU 0 instructions: 10000003 cycles: 3507070 heartbeat IPC: 2.85138 cumulative IPC: 2.85138 (Simulation time: 0 hr 0 min 31 sec) 
Heartbeat CPU 0 instructions: 20000002 cycles: 6987474 heartbeat IPC: 2.87323 cumulative IPC: 2.86226 (Simulation time: 0 hr 1 min 1 sec) 
Heartbeat CPU 0 instructions: 30000002 cycles: 10506291 heartbeat IPC: 2.84186 cumulative IPC: 2.85543 (Simulation time: 0 hr 1 min 31 sec) 
Heartbeat CPU 0 instructions: 40000001 cycles: 14025394 heartbeat IPC: 2.84163 cumulative IPC: 2.85197 (Simulation time: 0 hr 2 min 1 sec) 
Heartbeat CPU 0 instructions: 50000001 cycles: 17565560 heartbeat IPC: 2.82473 cumulative IPC: 2.84648 (Simulation time: 0 hr 2 min 31 sec) 

Warmup complete CPU 0 instructions: 50000001 cycles: 17565560 (Simulation time: 0 hr 2 min 31 sec) 

Heartbeat CPU 0 instructions: 60000000 cycles: 26330516 heartbeat IPC: 1.14091 cumulative IPC: 1.14091 (Simulation time: 0 hr 2 min 53 sec) 
Heartbeat CPU 0 instructions: 70000002 cycles: 34725709 heartbeat IPC: 1.19116 cumulative IPC: 1.16549 (Simulation time: 0 hr 3 min 14 sec) 
Heartbeat CPU 0 instructions: 80000003 cycles: 43574219 heartbeat IPC: 1.13013 cumulative IPC: 1.15346 (Simulation time: 0 hr 3 min 33 sec) 
Heartbeat CPU 0 instructions: 90000001 cycles: 52075765 heartbeat IPC: 1.17626 cumulative IPC: 1.15908 (Simulation time: 0 hr 3 min 52 sec) 
Heartbeat CPU 0 instructions: 100000003 cycles: 60895084 heartbeat IPC: 1.13387 cumulative IPC: 1.15395 (Simulation time: 0 hr 4 min 11 sec) 
Finished CPU 0 instructions: 50000002 cycles: 43329524 cumulative IPC: 1.15395 (Simulation time: 0 hr 4 min 11 sec) 

ChampSim completed all CPUs

Region of Interest Statistics

CPU 0 cumulative IPC: 1.15395 instructions: 50000002 cycles: 43329524
L1D TOTAL     ACCESS:   17980401  HIT:   17600894  MISS:     379507
L1D LOAD      ACCESS:    7209684  HIT:    7074156  MISS:     135528
L1D RFO       ACCESS:    3700338  HIT:    3595788  MISS:     104550
L1D PREFETCH  ACCESS:    7070379  HIT:    6930950  MISS:     139429
L1D WRITEBACK ACCESS:          0  HIT:          0  MISS:          0
L1D PREFETCH  REQUESTED:    7214957  ISSUED:    7132237  USEFUL:      44756  USELESS:      94679
L1D AVERAGE MISS LATENCY: 32.8372 cycles
L1I TOTAL     ACCESS:   14045203  HIT:   12386790  MISS:    1658413
L1I LOAD      ACCESS:    8972728  HIT:    8921813  MISS:      50915
L1I RFO       ACCESS:          0  HIT:          0  MISS:          0
L1I PREFETCH  ACCESS:    5072475  HIT:    3464977  MISS:    1607498
L1I WRITEBACK ACCESS:          0  HIT:          0  MISS:          0
L1I PREFETCH  REQUESTED:    5253501  ISSUED:    5111420  USEFUL:     803670  USELESS:     803778
L1I AVERAGE MISS LATENCY: 15.2468 cycles
L2C TOTAL     ACCESS:    2963277  HIT:    2834712  MISS:     128565
L2C LOAD      ACCESS:     160566  HIT:     124349  MISS:      36217
L2C RFO       ACCESS:     104184  HIT:      70271  MISS:      33913
L2C PREFETCH  ACCESS:    2559228  HIT:    2500813  MISS:      58415
L2C WRITEBACK ACCESS:     139299  HIT:     139279  MISS:         20
L2C PREFETCH  REQUESTED:    1358651  ISSUED:    1358580  USEFUL:       5653  USELESS:      53112
L2C AVERAGE MISS LATENCY: 61.1164 cycles
LLC TOTAL     ACCESS:     275980  HIT:     243862  MISS:      32118
LLC LOAD      ACCESS:      36215  HIT:      28159  MISS:       8056
LLC RFO       ACCESS:      33913  HIT:      29130  MISS:       4783
LLC PREFETCH  ACCESS:     161222  HIT:     142152  MISS:      19070
LLC WRITEBACK ACCESS:      44630  HIT:      44421  MISS:        209
LLC PREFETCH  REQUESTED:          0  ISSUED:          0  USEFUL:       1448  USELESS:      16216
LLC AVERAGE MISS LATENCY: 179.833 cycles
Major fault: 0 Minor fault: 4161
CPU 0 L1D next line prefetcher final stats

DRAM Statistics
 CHANNEL 0
 RQ ROW_BUFFER_HIT:       3371  ROW_BUFFER_MISS:      28533
 DBUS_CONGESTED:      16756
 WQ ROW_BUFFER_HIT:       1126  ROW_BUFFER_MISS:      13226  FULL:          0

 AVG_CONGESTED_CYCLE: 4

CPU 0 Branch Prediction Accuracy: 94.7729% MPKI: 9.72684 Average ROB Occupancy at Mispredict: 54.0539

Branch types
NOT_BRANCH: 40695385 81.3908%
BRANCH_DIRECT_JUMP: 422107 0.844214%
BRANCH_INDIRECT: 65 0.00013%
BRANCH_CONDITIONAL: 8105006 16.21%
BRANCH_DIRECT_CALL: 374913 0.749826%
BRANCH_INDIRECT_CALL: 13657 0.027314%
BRANCH_RETURN: 388556 0.777112%
BRANCH_OTHER: 0 0%

