Initialize SIGNATURE TABLE
ST_SET: 1
ST_WAY: 256
ST_TAG_BIT: 16
ST_TAG_MASK: ffff

Initialize PATTERN TABLE
PT_SET: 512
PT_WAY: 4
SIG_DELTA_BIT: 7
C_SIG_BIT: 4
C_DELTA_BIT: 4

Initialize PREFETCH FILTER
FILTER_SET: 1024

*** ChampSim Multicore Out-of-Order Simulator ***

Warmup Instructions: 50000000
Simulation Instructions: 50000000
Number of CPUs: 1
LLC sets: 2048
LLC ways: 16
Off-chip DRAM Size: 4096 MB Channels: 1 Width: 64-bit Data Rate: 3200 MT/s

CPU 0 runs /Users/brandon/Documents/CoursesWi22/CSE240C/Homework1/ChampSim/ipc1_public/client_003.champsimtrace.xz
L1I D-JOLT instruction prefetcher has been constructed!
CPU 0 L1D next line prefetcher
Heartbeat CPU 0 instructions: 10000000 cycles: 3478532 heartbeat IPC: 2.87478 cumulative IPC: 2.87478 (Simulation time: 0 hr 1 min 35 sec) 
Heartbeat CPU 0 instructions: 20000002 cycles: 6933003 heartbeat IPC: 2.8948 cumulative IPC: 2.88475 (Simulation time: 0 hr 3 min 25 sec) 
Heartbeat CPU 0 instructions: 30000003 cycles: 10493977 heartbeat IPC: 2.80822 cumulative IPC: 2.85878 (Simulation time: 0 hr 5 min 23 sec) 
Heartbeat CPU 0 instructions: 40000001 cycles: 14110470 heartbeat IPC: 2.76511 cumulative IPC: 2.83477 (Simulation time: 0 hr 7 min 23 sec) 
Heartbeat CPU 0 instructions: 50000003 cycles: 17655693 heartbeat IPC: 2.8207 cumulative IPC: 2.83195 (Simulation time: 0 hr 9 min 31 sec) 

Warmup complete CPU 0 instructions: 50000003 cycles: 17655693 (Simulation time: 0 hr 9 min 31 sec) 

Heartbeat CPU 0 instructions: 60000002 cycles: 23992915 heartbeat IPC: 1.57798 cumulative IPC: 1.57798 (Simulation time: 0 hr 11 min 19 sec) 
Heartbeat CPU 0 instructions: 70000001 cycles: 30076718 heartbeat IPC: 1.64371 cumulative IPC: 1.61017 (Simulation time: 0 hr 13 min 14 sec) 
Heartbeat CPU 0 instructions: 80000001 cycles: 37083568 heartbeat IPC: 1.42717 cumulative IPC: 1.54417 (Simulation time: 0 hr 14 min 59 sec) 
Heartbeat CPU 0 instructions: 90000000 cycles: 45962278 heartbeat IPC: 1.12629 cumulative IPC: 1.4131 (Simulation time: 0 hr 16 min 19 sec) 
Heartbeat CPU 0 instructions: 100000003 cycles: 56824117 heartbeat IPC: 0.920655 cumulative IPC: 1.27654 (Simulation time: 0 hr 17 min 42 sec) 
Finished CPU 0 instructions: 50000000 cycles: 39168424 cumulative IPC: 1.27654 (Simulation time: 0 hr 17 min 42 sec) 

ChampSim completed all CPUs

Region of Interest Statistics

CPU 0 cumulative IPC: 1.27654 instructions: 50000000 cycles: 39168424
L1D TOTAL     ACCESS:   17639064  HIT:   17143120  MISS:     495944
L1D LOAD      ACCESS:    6037201  HIT:    5912942  MISS:     124259
L1D RFO       ACCESS:    5944312  HIT:    5709850  MISS:     234462
L1D PREFETCH  ACCESS:    5657551  HIT:    5520328  MISS:     137223
L1D WRITEBACK ACCESS:          0  HIT:          0  MISS:          0
L1D PREFETCH  REQUESTED:    6079043  ISSUED:    5938107  USEFUL:      69363  USELESS:      67908
L1D AVERAGE MISS LATENCY: 123.343 cycles
L1I TOTAL     ACCESS:   16450359  HIT:   14425462  MISS:    2024897
L1I LOAD      ACCESS:    9494377  HIT:    9406919  MISS:      87458
L1I RFO       ACCESS:          0  HIT:          0  MISS:          0
L1I PREFETCH  ACCESS:    6955982  HIT:    5018543  MISS:    1937439
L1I WRITEBACK ACCESS:          0  HIT:          0  MISS:          0
L1I PREFETCH  REQUESTED:    7298750  ISSUED:    7152613  USEFUL:     793141  USELESS:    1144335
L1I AVERAGE MISS LATENCY: 16.7456 cycles
L2C TOTAL     ACCESS:    3590181  HIT:    3176830  MISS:     413351
L2C LOAD      ACCESS:     162232  HIT:     111675  MISS:      50557
L2C RFO       ACCESS:     232334  HIT:      24284  MISS:     208050
L2C PREFETCH  ACCESS:    2926329  HIT:    2772924  MISS:     153405
L2C WRITEBACK ACCESS:     269286  HIT:     267947  MISS:       1339
L2C PREFETCH  REQUESTED:    1829263  ISSUED:    1829008  USEFUL:      15647  USELESS:     137972
L2C AVERAGE MISS LATENCY: 159.785 cycles
LLC TOTAL     ACCESS:    1055697  HIT:     763760  MISS:     291937
LLC LOAD      ACCESS:      50513  HIT:      35044  MISS:      15469
LLC RFO       ACCESS:     208046  HIT:      34747  MISS:     173299
LLC PREFETCH  ACCESS:     571090  HIT:     468328  MISS:     102762
LLC WRITEBACK ACCESS:     226048  HIT:     225641  MISS:        407
LLC PREFETCH  REQUESTED:          0  ISSUED:          0  USEFUL:      12386  USELESS:      90987
LLC AVERAGE MISS LATENCY: 228.08 cycles
Major fault: 0 Minor fault: 5045
CPU 0 L1D next line prefetcher final stats

DRAM Statistics
 CHANNEL 0
 RQ ROW_BUFFER_HIT:      99802  ROW_BUFFER_MISS:     191721
 DBUS_CONGESTED:     257426
 WQ ROW_BUFFER_HIT:      59224  ROW_BUFFER_MISS:     120002  FULL:          0

 AVG_CONGESTED_CYCLE: 6

CPU 0 Branch Prediction Accuracy: 98.6631% MPKI: 2.66884 Average ROB Occupancy at Mispredict: 77.2189

Branch types
NOT_BRANCH: 40018778 80.0376%
BRANCH_DIRECT_JUMP: 370861 0.741722%
BRANCH_INDIRECT: 83252 0.166504%
BRANCH_CONDITIONAL: 7877436 15.7549%
BRANCH_DIRECT_CALL: 722315 1.44463%
BRANCH_INDIRECT_CALL: 101901 0.203802%
BRANCH_RETURN: 825355 1.65071%
BRANCH_OTHER: 0 0%

