Initialize SIGNATURE TABLE
ST_SET: 1
ST_WAY: 256
ST_TAG_BIT: 16
ST_TAG_MASK: ffff

Initialize PATTERN TABLE
PT_SET: 512
PT_WAY: 4
SIG_DELTA_BIT: 7
C_SIG_BIT: 4
C_DELTA_BIT: 4

Initialize PREFETCH FILTER
FILTER_SET: 1024

*** ChampSim Multicore Out-of-Order Simulator ***

Warmup Instructions: 50000000
Simulation Instructions: 50000000
Number of CPUs: 1
LLC sets: 2048
LLC ways: 16
Off-chip DRAM Size: 4096 MB Channels: 1 Width: 64-bit Data Rate: 3200 MT/s

CPU 0 runs /Users/brandon/Documents/CoursesWi22/CSE240C/Homework1/ChampSim/ipc1_public/client_005.champsimtrace.xz
L1I D-JOLT instruction prefetcher has been constructed!
CPU 0 L1D next line prefetcher
Heartbeat CPU 0 instructions: 10000001 cycles: 3291612 heartbeat IPC: 3.03803 cumulative IPC: 3.03803 (Simulation time: 0 hr 1 min 30 sec) 
Heartbeat CPU 0 instructions: 20000002 cycles: 6697900 heartbeat IPC: 2.93575 cumulative IPC: 2.98601 (Simulation time: 0 hr 3 min 20 sec) 
Heartbeat CPU 0 instructions: 30000001 cycles: 10391203 heartbeat IPC: 2.7076 cumulative IPC: 2.88706 (Simulation time: 0 hr 5 min 26 sec) 
Heartbeat CPU 0 instructions: 40000000 cycles: 14069104 heartbeat IPC: 2.71894 cumulative IPC: 2.84311 (Simulation time: 0 hr 7 min 33 sec) 
Heartbeat CPU 0 instructions: 50000001 cycles: 17342894 heartbeat IPC: 3.05456 cumulative IPC: 2.88303 (Simulation time: 0 hr 9 min 34 sec) 

Warmup complete CPU 0 instructions: 50000001 cycles: 17342894 (Simulation time: 0 hr 9 min 34 sec) 

Heartbeat CPU 0 instructions: 60000002 cycles: 25275470 heartbeat IPC: 1.26062 cumulative IPC: 1.26062 (Simulation time: 0 hr 11 min 18 sec) 
Heartbeat CPU 0 instructions: 70000003 cycles: 32651131 heartbeat IPC: 1.35581 cumulative IPC: 1.30649 (Simulation time: 0 hr 13 min 11 sec) 
Heartbeat CPU 0 instructions: 80000001 cycles: 39516743 heartbeat IPC: 1.45653 cumulative IPC: 1.35295 (Simulation time: 0 hr 15 min 15 sec) 
Heartbeat CPU 0 instructions: 90000002 cycles: 49043006 heartbeat IPC: 1.04973 cumulative IPC: 1.26183 (Simulation time: 0 hr 17 min 18 sec) 
Heartbeat CPU 0 instructions: 100000002 cycles: 56826424 heartbeat IPC: 1.28478 cumulative IPC: 1.26635 (Simulation time: 0 hr 18 min 18 sec) 
Finished CPU 0 instructions: 50000001 cycles: 39483530 cumulative IPC: 1.26635 (Simulation time: 0 hr 18 min 18 sec) 

ChampSim completed all CPUs

Region of Interest Statistics

CPU 0 cumulative IPC: 1.26635 instructions: 50000001 cycles: 39483530
L1D TOTAL     ACCESS:   19641651  HIT:   19105890  MISS:     535761
L1D LOAD      ACCESS:    6651665  HIT:    6479799  MISS:     171866
L1D RFO       ACCESS:    6790992  HIT:    6606389  MISS:     184603
L1D PREFETCH  ACCESS:    6198994  HIT:    6019702  MISS:     179292
L1D WRITEBACK ACCESS:          0  HIT:          0  MISS:          0
L1D PREFETCH  REQUESTED:    6675527  ISSUED:    6305280  USEFUL:      59239  USELESS:     119941
L1D AVERAGE MISS LATENCY: 95.1101 cycles
L1I TOTAL     ACCESS:   20218699  HIT:   16834249  MISS:    3384450
L1I LOAD      ACCESS:    9396570  HIT:    9256439  MISS:     140131
L1I RFO       ACCESS:          0  HIT:          0  MISS:          0
L1I PREFETCH  ACCESS:   10822129  HIT:    7577810  MISS:    3244319
L1I WRITEBACK ACCESS:          0  HIT:          0  MISS:          0
L1I PREFETCH  REQUESTED:   11730897  ISSUED:   11155978  USEFUL:    1185016  USELESS:    2059232
L1I AVERAGE MISS LATENCY: 16.2329 cycles
L2C TOTAL     ACCESS:    5482223  HIT:    5077980  MISS:     404243
L2C LOAD      ACCESS:     272431  HIT:     175900  MISS:      96531
L2C RFO       ACCESS:     180876  HIT:      30965  MISS:     149911
L2C PREFETCH  ACCESS:    4775858  HIT:    4619368  MISS:     156490
L2C WRITEBACK ACCESS:     253058  HIT:     251747  MISS:       1311
L2C PREFETCH  REQUESTED:    2551987  ISSUED:    2551715  USEFUL:      19629  USELESS:     135703
L2C AVERAGE MISS LATENCY: 124.371 cycles
LLC TOTAL     ACCESS:    1025766  HIT:     725424  MISS:     300342
LLC LOAD      ACCESS:      96517  HIT:      49974  MISS:      46543
LLC RFO       ACCESS:     149908  HIT:      16067  MISS:     133841
LLC PREFETCH  ACCESS:     578909  HIT:     459787  MISS:     119122
LLC WRITEBACK ACCESS:     200432  HIT:     199596  MISS:        836
LLC PREFETCH  REQUESTED:          0  ISSUED:          0  USEFUL:      26445  USELESS:      91214
LLC AVERAGE MISS LATENCY: 168.232 cycles
Major fault: 0 Minor fault: 6089
CPU 0 L1D next line prefetcher final stats

DRAM Statistics
 CHANNEL 0
 RQ ROW_BUFFER_HIT:      94718  ROW_BUFFER_MISS:     204780
 DBUS_CONGESTED:     231826
 WQ ROW_BUFFER_HIT:      53626  ROW_BUFFER_MISS:     128687  FULL:          0

 AVG_CONGESTED_CYCLE: 6

CPU 0 Branch Prediction Accuracy: 97.8666% MPKI: 3.9013 Average ROB Occupancy at Mispredict: 87.3693

Branch types
NOT_BRANCH: 40856330 81.7127%
BRANCH_DIRECT_JUMP: 484667 0.969334%
BRANCH_INDIRECT: 85086 0.170172%
BRANCH_CONDITIONAL: 6230887 12.4618%
BRANCH_DIRECT_CALL: 1028917 2.05783%
BRANCH_INDIRECT_CALL: 141825 0.28365%
BRANCH_RETURN: 1171986 2.34397%
BRANCH_OTHER: 0 0%

