Initialize SIGNATURE TABLE
ST_SET: 1
ST_WAY: 256
ST_TAG_BIT: 16
ST_TAG_MASK: ffff

Initialize PATTERN TABLE
PT_SET: 512
PT_WAY: 4
SIG_DELTA_BIT: 7
C_SIG_BIT: 4
C_DELTA_BIT: 4

Initialize PREFETCH FILTER
FILTER_SET: 1024

*** ChampSim Multicore Out-of-Order Simulator ***

Warmup Instructions: 50000000
Simulation Instructions: 50000000
Number of CPUs: 1
LLC sets: 2048
LLC ways: 16
Off-chip DRAM Size: 4096 MB Channels: 1 Width: 64-bit Data Rate: 3200 MT/s

CPU 0 runs /Users/brandon/Documents/CoursesWi22/CSE240C/Homework1/ChampSim/ipc1_public/server_011.champsimtrace.xz
L1I D-JOLT instruction prefetcher has been constructed!
CPU 0 L1D next line prefetcher
Heartbeat CPU 0 instructions: 10000002 cycles: 3203574 heartbeat IPC: 3.12151 cumulative IPC: 3.12151 (Simulation time: 0 hr 1 min 31 sec) 
Heartbeat CPU 0 instructions: 20000001 cycles: 6412199 heartbeat IPC: 3.1166 cumulative IPC: 3.11906 (Simulation time: 0 hr 3 min 17 sec) 
Heartbeat CPU 0 instructions: 30000001 cycles: 9664848 heartbeat IPC: 3.07442 cumulative IPC: 3.10403 (Simulation time: 0 hr 5 min 4 sec) 
Heartbeat CPU 0 instructions: 40000003 cycles: 12864346 heartbeat IPC: 3.12549 cumulative IPC: 3.10937 (Simulation time: 0 hr 6 min 55 sec) 
Heartbeat CPU 0 instructions: 50000000 cycles: 16071831 heartbeat IPC: 3.11771 cumulative IPC: 3.11103 (Simulation time: 0 hr 8 min 53 sec) 

Warmup complete CPU 0 instructions: 50000004 cycles: 16071832 (Simulation time: 0 hr 8 min 53 sec) 

Heartbeat CPU 0 instructions: 60000002 cycles: 23522737 heartbeat IPC: 1.34212 cumulative IPC: 1.34212 (Simulation time: 0 hr 10 min 42 sec) 
Heartbeat CPU 0 instructions: 70000001 cycles: 31436743 heartbeat IPC: 1.26358 cumulative IPC: 1.30167 (Simulation time: 0 hr 12 min 26 sec) 
Heartbeat CPU 0 instructions: 80000003 cycles: 40687585 heartbeat IPC: 1.08098 cumulative IPC: 1.21873 (Simulation time: 0 hr 14 min 0 sec) 
Heartbeat CPU 0 instructions: 90000001 cycles: 48578113 heartbeat IPC: 1.26734 cumulative IPC: 1.23053 (Simulation time: 0 hr 15 min 40 sec) 
Heartbeat CPU 0 instructions: 100000000 cycles: 56196042 heartbeat IPC: 1.31269 cumulative IPC: 1.24613 (Simulation time: 0 hr 17 min 23 sec) 
Finished CPU 0 instructions: 50000003 cycles: 40124222 cumulative IPC: 1.24613 (Simulation time: 0 hr 17 min 23 sec) 

ChampSim completed all CPUs

Region of Interest Statistics

CPU 0 cumulative IPC: 1.24613 instructions: 50000003 cycles: 40124222
L1D TOTAL     ACCESS:   18209120  HIT:   17178042  MISS:    1031078
L1D LOAD      ACCESS:    6806908  HIT:    6325938  MISS:     480970
L1D RFO       ACCESS:    4833862  HIT:    4751907  MISS:      81955
L1D PREFETCH  ACCESS:    6568350  HIT:    6100197  MISS:     468153
L1D WRITEBACK ACCESS:          0  HIT:          0  MISS:          0
L1D PREFETCH  REQUESTED:    6843986  ISSUED:    6751526  USEFUL:     137911  USELESS:     330238
L1D AVERAGE MISS LATENCY: 41.3195 cycles
L1I TOTAL     ACCESS:   17795593  HIT:   15759956  MISS:    2035637
L1I LOAD      ACCESS:    8892438  HIT:    8746702  MISS:     145736
L1I RFO       ACCESS:          0  HIT:          0  MISS:          0
L1I PREFETCH  ACCESS:    8903155  HIT:    7013254  MISS:    1889901
L1I WRITEBACK ACCESS:          0  HIT:          0  MISS:          0
L1I PREFETCH  REQUESTED:   10900154  ISSUED:    9249764  USEFUL:    1242789  USELESS:     647114
L1I AVERAGE MISS LATENCY: 29.1838 cycles
L2C TOTAL     ACCESS:    4091089  HIT:    2943528  MISS:    1147561
L2C LOAD      ACCESS:     560930  HIT:     297850  MISS:     263080
L2C RFO       ACCESS:      80162  HIT:      33757  MISS:      46405
L2C PREFETCH  ACCESS:    3181908  HIT:    2345060  MISS:     836848
L2C WRITEBACK ACCESS:     268089  HIT:     266861  MISS:       1228
L2C PREFETCH  REQUESTED:    3003394  ISSUED:    2997867  USEFUL:      33267  USELESS:     803774
L2C AVERAGE MISS LATENCY: 50.5529 cycles
LLC TOTAL     ACCESS:    2222137  HIT:    2023553  MISS:     198584
LLC LOAD      ACCESS:     262927  HIT:     230177  MISS:      32750
LLC RFO       ACCESS:      46403  HIT:      32576  MISS:      13827
LLC PREFETCH  ACCESS:    1758276  HIT:    1606600  MISS:     151676
LLC WRITEBACK ACCESS:     154531  HIT:     154200  MISS:        331
LLC PREFETCH  REQUESTED:          0  ISSUED:          0  USEFUL:      19998  USELESS:     130115
LLC AVERAGE MISS LATENCY: 174.59 cycles
Major fault: 0 Minor fault: 6982
CPU 0 L1D next line prefetcher final stats

DRAM Statistics
 CHANNEL 0
 RQ ROW_BUFFER_HIT:      33127  ROW_BUFFER_MISS:     165093
 DBUS_CONGESTED:      80497
 WQ ROW_BUFFER_HIT:      13710  ROW_BUFFER_MISS:      49751  FULL:          0

 AVG_CONGESTED_CYCLE: 5

CPU 0 Branch Prediction Accuracy: 97.5565% MPKI: 4.59006 Average ROB Occupancy at Mispredict: 60.6655

Branch types
NOT_BRANCH: 40607199 81.2144%
BRANCH_DIRECT_JUMP: 451601 0.903202%
BRANCH_INDIRECT: 151580 0.30316%
BRANCH_CONDITIONAL: 7041635 14.0833%
BRANCH_DIRECT_CALL: 647827 1.29565%
BRANCH_INDIRECT_CALL: 211373 0.422746%
BRANCH_RETURN: 888439 1.77688%
BRANCH_OTHER: 0 0%

