Initialize SIGNATURE TABLE
ST_SET: 1
ST_WAY: 256
ST_TAG_BIT: 16
ST_TAG_MASK: ffff

Initialize PATTERN TABLE
PT_SET: 512
PT_WAY: 4
SIG_DELTA_BIT: 7
C_SIG_BIT: 4
C_DELTA_BIT: 4

Initialize PREFETCH FILTER
FILTER_SET: 1024

*** ChampSim Multicore Out-of-Order Simulator ***

Warmup Instructions: 50000000
Simulation Instructions: 50000000
Number of CPUs: 1
LLC sets: 2048
LLC ways: 16
Off-chip DRAM Size: 4096 MB Channels: 1 Width: 64-bit Data Rate: 3200 MT/s

CPU 0 runs /Users/brandon/Documents/CoursesWi22/CSE240C/Homework1/ChampSim/ipc1_public/server_025.champsimtrace.xz
L1I D-JOLT instruction prefetcher has been constructed!
CPU 0 L1D next line prefetcher
Heartbeat CPU 0 instructions: 10000003 cycles: 3529494 heartbeat IPC: 2.83327 cumulative IPC: 2.83327 (Simulation time: 0 hr 1 min 50 sec) 
Heartbeat CPU 0 instructions: 20000000 cycles: 7065721 heartbeat IPC: 2.82787 cumulative IPC: 2.83057 (Simulation time: 0 hr 3 min 35 sec) 
Heartbeat CPU 0 instructions: 30000001 cycles: 10593907 heartbeat IPC: 2.83432 cumulative IPC: 2.83182 (Simulation time: 0 hr 5 min 20 sec) 
Heartbeat CPU 0 instructions: 40000003 cycles: 14128359 heartbeat IPC: 2.82929 cumulative IPC: 2.83119 (Simulation time: 0 hr 7 min 2 sec) 
Heartbeat CPU 0 instructions: 50000001 cycles: 17660595 heartbeat IPC: 2.83107 cumulative IPC: 2.83116 (Simulation time: 0 hr 8 min 43 sec) 

Warmup complete CPU 0 instructions: 50000001 cycles: 17660595 (Simulation time: 0 hr 8 min 43 sec) 

Heartbeat CPU 0 instructions: 60000002 cycles: 24491846 heartbeat IPC: 1.46386 cumulative IPC: 1.46386 (Simulation time: 0 hr 10 min 22 sec) 
Heartbeat CPU 0 instructions: 70000000 cycles: 31421179 heartbeat IPC: 1.44314 cumulative IPC: 1.45343 (Simulation time: 0 hr 12 min 2 sec) 
Heartbeat CPU 0 instructions: 80000002 cycles: 38274016 heartbeat IPC: 1.45925 cumulative IPC: 1.45536 (Simulation time: 0 hr 13 min 34 sec) 
Heartbeat CPU 0 instructions: 90000001 cycles: 44783587 heartbeat IPC: 1.5362 cumulative IPC: 1.47476 (Simulation time: 0 hr 14 min 58 sec) 
Heartbeat CPU 0 instructions: 100000003 cycles: 50996149 heartbeat IPC: 1.60964 cumulative IPC: 1.4999 (Simulation time: 0 hr 16 min 10 sec) 
Finished CPU 0 instructions: 50000002 cycles: 33335554 cumulative IPC: 1.4999 (Simulation time: 0 hr 16 min 10 sec) 

ChampSim completed all CPUs

Region of Interest Statistics

CPU 0 cumulative IPC: 1.4999 instructions: 50000002 cycles: 33335554
L1D TOTAL     ACCESS:   19967173  HIT:   18541721  MISS:    1425452
L1D LOAD      ACCESS:    6947771  HIT:    6328032  MISS:     619739
L1D RFO       ACCESS:    6385835  HIT:    6137725  MISS:     248110
L1D PREFETCH  ACCESS:    6633567  HIT:    6075964  MISS:     557603
L1D WRITEBACK ACCESS:          0  HIT:          0  MISS:          0
L1D PREFETCH  REQUESTED:    6988028  ISSUED:    6812726  USEFUL:     130279  USELESS:     427319
L1D AVERAGE MISS LATENCY: 23.5426 cycles
L1I TOTAL     ACCESS:   16412541  HIT:   13425809  MISS:    2986732
L1I LOAD      ACCESS:    9512373  HIT:    9470516  MISS:      41857
L1I RFO       ACCESS:          0  HIT:          0  MISS:          0
L1I PREFETCH  ACCESS:    6900168  HIT:    3955293  MISS:    2944875
L1I WRITEBACK ACCESS:          0  HIT:          0  MISS:          0
L1I PREFETCH  REQUESTED:    7321897  ISSUED:    7218691  USEFUL:    2447688  USELESS:     497194
L1I AVERAGE MISS LATENCY: 19.6381 cycles
L2C TOTAL     ACCESS:    6078262  HIT:    5305487  MISS:     772775
L2C LOAD      ACCESS:     627591  HIT:     500743  MISS:     126848
L2C RFO       ACCESS:     246714  HIT:     176413  MISS:      70301
L2C PREFETCH  ACCESS:    4707211  HIT:    4134665  MISS:     572546
L2C WRITEBACK ACCESS:     496746  HIT:     493666  MISS:       3080
L2C PREFETCH  REQUESTED:    3930688  ISSUED:    3925504  USEFUL:       9454  USELESS:     562816
L2C AVERAGE MISS LATENCY: 37.1039 cycles
LLC TOTAL     ACCESS:    1965497  HIT:    1937633  MISS:      27864
LLC LOAD      ACCESS:     126733  HIT:     123622  MISS:       3111
LLC RFO       ACCESS:      70295  HIT:      59433  MISS:      10862
LLC PREFETCH  ACCESS:    1638827  HIT:    1625119  MISS:      13708
LLC WRITEBACK ACCESS:     129642  HIT:     129459  MISS:        183
LLC PREFETCH  REQUESTED:          0  ISSUED:          0  USEFUL:        979  USELESS:      12549
LLC AVERAGE MISS LATENCY: 179.19 cycles
Major fault: 0 Minor fault: 2463
CPU 0 L1D next line prefetcher final stats

DRAM Statistics
 CHANNEL 0
 RQ ROW_BUFFER_HIT:       9134  ROW_BUFFER_MISS:      18531
 DBUS_CONGESTED:      17934
 WQ ROW_BUFFER_HIT:       1248  ROW_BUFFER_MISS:      11407  FULL:          0

 AVG_CONGESTED_CYCLE: 6

CPU 0 Branch Prediction Accuracy: 99.8142% MPKI: 0.34676 Average ROB Occupancy at Mispredict: 204.205

Branch types
NOT_BRANCH: 40668926 81.3378%
BRANCH_DIRECT_JUMP: 531701 1.0634%
BRANCH_INDIRECT: 199025 0.39805%
BRANCH_CONDITIONAL: 6211500 12.423%
BRANCH_DIRECT_CALL: 1010912 2.02182%
BRANCH_INDIRECT_CALL: 183501 0.367002%
BRANCH_RETURN: 1194416 2.38883%
BRANCH_OTHER: 0 0%

