Initialize SIGNATURE TABLE
ST_SET: 1
ST_WAY: 256
ST_TAG_BIT: 16
ST_TAG_MASK: ffff

Initialize PATTERN TABLE
PT_SET: 512
PT_WAY: 4
SIG_DELTA_BIT: 7
C_SIG_BIT: 4
C_DELTA_BIT: 4

Initialize PREFETCH FILTER
FILTER_SET: 1024

*** ChampSim Multicore Out-of-Order Simulator ***

Warmup Instructions: 50000000
Simulation Instructions: 50000000
Number of CPUs: 1
LLC sets: 2048
LLC ways: 16
Off-chip DRAM Size: 4096 MB Channels: 1 Width: 64-bit Data Rate: 3200 MT/s

CPU 0 runs /Users/brandon/Documents/CoursesWi22/CSE240C/Homework1/ChampSim/ipc1_public/server_030.champsimtrace.xz
L1I D-JOLT instruction prefetcher has been constructed!
CPU 0 L1D next line prefetcher
Heartbeat CPU 0 instructions: 10000003 cycles: 3509557 heartbeat IPC: 2.84936 cumulative IPC: 2.84936 (Simulation time: 0 hr 1 min 51 sec) 
Heartbeat CPU 0 instructions: 20000003 cycles: 7020206 heartbeat IPC: 2.84848 cumulative IPC: 2.84892 (Simulation time: 0 hr 3 min 38 sec) 
Heartbeat CPU 0 instructions: 30000000 cycles: 10530249 heartbeat IPC: 2.84897 cumulative IPC: 2.84894 (Simulation time: 0 hr 5 min 23 sec) 
Heartbeat CPU 0 instructions: 40000002 cycles: 14040353 heartbeat IPC: 2.84892 cumulative IPC: 2.84893 (Simulation time: 0 hr 7 min 5 sec) 
Heartbeat CPU 0 instructions: 50000002 cycles: 17553215 heartbeat IPC: 2.84668 cumulative IPC: 2.84848 (Simulation time: 0 hr 8 min 47 sec) 

Warmup complete CPU 0 instructions: 50000002 cycles: 17553215 (Simulation time: 0 hr 8 min 47 sec) 

Heartbeat CPU 0 instructions: 60000000 cycles: 24610354 heartbeat IPC: 1.417 cumulative IPC: 1.417 (Simulation time: 0 hr 10 min 28 sec) 
Heartbeat CPU 0 instructions: 70000000 cycles: 31656975 heartbeat IPC: 1.41912 cumulative IPC: 1.41806 (Simulation time: 0 hr 12 min 8 sec) 
Heartbeat CPU 0 instructions: 80000001 cycles: 38701059 heartbeat IPC: 1.41963 cumulative IPC: 1.41858 (Simulation time: 0 hr 13 min 39 sec) 
*** Reached end of trace for Core: 0 Repeating trace: /Users/brandon/Documents/CoursesWi22/CSE240C/Homework1/ChampSim/ipc1_public/server_030.champsimtrace.xz
Heartbeat CPU 0 instructions: 90000002 cycles: 45748613 heartbeat IPC: 1.41893 cumulative IPC: 1.41867 (Simulation time: 0 hr 15 min 4 sec) 
Heartbeat CPU 0 instructions: 100000002 cycles: 52794080 heartbeat IPC: 1.41935 cumulative IPC: 1.41881 (Simulation time: 0 hr 16 min 15 sec) 
Finished CPU 0 instructions: 50000000 cycles: 35240865 cumulative IPC: 1.41881 (Simulation time: 0 hr 16 min 15 sec) 

ChampSim completed all CPUs

Region of Interest Statistics

CPU 0 cumulative IPC: 1.41881 instructions: 50000000 cycles: 35240865
L1D TOTAL     ACCESS:   19148143  HIT:   17072309  MISS:    2075834
L1D LOAD      ACCESS:    6762196  HIT:    5708871  MISS:    1053325
L1D RFO       ACCESS:    6167719  HIT:    5881170  MISS:     286549
L1D PREFETCH  ACCESS:    6218228  HIT:    5482268  MISS:     735960
L1D WRITEBACK ACCESS:          0  HIT:          0  MISS:          0
L1D PREFETCH  REQUESTED:    6814468  ISSUED:    6680274  USEFUL:     180464  USELESS:     555589
L1D AVERAGE MISS LATENCY: 19.9632 cycles
L1I TOTAL     ACCESS:   17508392  HIT:   13882435  MISS:    3625957
L1I LOAD      ACCESS:    9821945  HIT:    9783071  MISS:      38874
L1I RFO       ACCESS:          0  HIT:          0  MISS:          0
L1I PREFETCH  ACCESS:    7686447  HIT:    4099364  MISS:    3587083
L1I WRITEBACK ACCESS:          0  HIT:          0  MISS:          0
L1I PREFETCH  REQUESTED:    8220325  ISSUED:    8077711  USEFUL:    2972334  USELESS:     614739
L1I AVERAGE MISS LATENCY: 19.2074 cycles
L2C TOTAL     ACCESS:    8050117  HIT:    7140896  MISS:     909221
L2C LOAD      ACCESS:     930777  HIT:     757322  MISS:     173455
L2C RFO       ACCESS:     283809  HIT:     202493  MISS:      81316
L2C PREFETCH  ACCESS:    6219964  HIT:    5567761  MISS:     652203
L2C WRITEBACK ACCESS:     615567  HIT:     613320  MISS:       2247
L2C PREFETCH  REQUESTED:    5883704  ISSUED:    5875950  USEFUL:       7783  USELESS:     644288
L2C AVERAGE MISS LATENCY: 33.7422 cycles
LLC TOTAL     ACCESS:    2544312  HIT:    2525021  MISS:      19291
LLC LOAD      ACCESS:     172919  HIT:     170151  MISS:       2768
LLC RFO       ACCESS:      81299  HIT:      79514  MISS:       1785
LLC PREFETCH  ACCESS:    2146647  HIT:    2132001  MISS:      14646
LLC WRITEBACK ACCESS:     143447  HIT:     143355  MISS:         92
LLC PREFETCH  REQUESTED:          0  ISSUED:          0  USEFUL:        827  USELESS:      13704
LLC AVERAGE MISS LATENCY: 144.686 cycles
Major fault: 0 Minor fault: 2044
CPU 0 L1D next line prefetcher final stats

DRAM Statistics
 CHANNEL 0
 RQ ROW_BUFFER_HIT:       6304  ROW_BUFFER_MISS:      12895
 DBUS_CONGESTED:       6106
 WQ ROW_BUFFER_HIT:        135  ROW_BUFFER_MISS:       2125  FULL:          0

 AVG_CONGESTED_CYCLE: 5

CPU 0 Branch Prediction Accuracy: 99.8445% MPKI: 0.29148 Average ROB Occupancy at Mispredict: 167.943

Branch types
NOT_BRANCH: 40628081 81.2562%
BRANCH_DIRECT_JUMP: 490941 0.981882%
BRANCH_INDIRECT: 175854 0.351708%
BRANCH_CONDITIONAL: 6321415 12.6428%
BRANCH_DIRECT_CALL: 1002072 2.00414%
BRANCH_INDIRECT_CALL: 189783 0.379566%
BRANCH_RETURN: 1191851 2.3837%
BRANCH_OTHER: 0 0%

