Initialize SIGNATURE TABLE
ST_SET: 1
ST_WAY: 256
ST_TAG_BIT: 16
ST_TAG_MASK: ffff

Initialize PATTERN TABLE
PT_SET: 512
PT_WAY: 4
SIG_DELTA_BIT: 7
C_SIG_BIT: 4
C_DELTA_BIT: 4

Initialize PREFETCH FILTER
FILTER_SET: 1024

*** ChampSim Multicore Out-of-Order Simulator ***

Warmup Instructions: 50000000
Simulation Instructions: 50000000
Number of CPUs: 1
LLC sets: 2048
LLC ways: 16
Off-chip DRAM Size: 4096 MB Channels: 1 Width: 64-bit Data Rate: 3200 MT/s

CPU 0 runs /Users/brandon/Documents/CoursesWi22/CSE240C/Homework1/ChampSim/ipc1_public/server_001.champsimtrace.xz
L1I D-JOLT instruction prefetcher has been constructed!
CPU 0 L1D next line prefetcher
Heartbeat CPU 0 instructions: 10000002 cycles: 3154982 heartbeat IPC: 3.16959 cumulative IPC: 3.16959 (Simulation time: 0 hr 1 min 25 sec) 
Heartbeat CPU 0 instructions: 20000000 cycles: 6369247 heartbeat IPC: 3.11113 cumulative IPC: 3.14009 (Simulation time: 0 hr 3 min 8 sec) 
Heartbeat CPU 0 instructions: 30000003 cycles: 9555247 heartbeat IPC: 3.13873 cumulative IPC: 3.13964 (Simulation time: 0 hr 4 min 52 sec) 
Heartbeat CPU 0 instructions: 40000002 cycles: 12762444 heartbeat IPC: 3.11799 cumulative IPC: 3.1342 (Simulation time: 0 hr 6 min 38 sec) 
Heartbeat CPU 0 instructions: 50000003 cycles: 15981458 heartbeat IPC: 3.10654 cumulative IPC: 3.12863 (Simulation time: 0 hr 8 min 31 sec) 

Warmup complete CPU 0 instructions: 50000003 cycles: 15981458 (Simulation time: 0 hr 8 min 31 sec) 

Heartbeat CPU 0 instructions: 60000000 cycles: 23065227 heartbeat IPC: 1.41168 cumulative IPC: 1.41168 (Simulation time: 0 hr 10 min 14 sec) 
Heartbeat CPU 0 instructions: 70000002 cycles: 29918962 heartbeat IPC: 1.45906 cumulative IPC: 1.43498 (Simulation time: 0 hr 11 min 57 sec) 
Heartbeat CPU 0 instructions: 80000002 cycles: 36754021 heartbeat IPC: 1.46305 cumulative IPC: 1.44421 (Simulation time: 0 hr 13 min 46 sec) 
Heartbeat CPU 0 instructions: 90000002 cycles: 43905043 heartbeat IPC: 1.3984 cumulative IPC: 1.43248 (Simulation time: 0 hr 15 min 29 sec) 
Heartbeat CPU 0 instructions: 100000003 cycles: 50652175 heartbeat IPC: 1.48211 cumulative IPC: 1.44214 (Simulation time: 0 hr 17 min 8 sec) 
Finished CPU 0 instructions: 50000000 cycles: 34670717 cumulative IPC: 1.44214 (Simulation time: 0 hr 17 min 8 sec) 

ChampSim completed all CPUs

Region of Interest Statistics

CPU 0 cumulative IPC: 1.44214 instructions: 50000000 cycles: 34670717
L1D TOTAL     ACCESS:   17601441  HIT:   17090329  MISS:     511112
L1D LOAD      ACCESS:    6437313  HIT:    6232719  MISS:     204594
L1D RFO       ACCESS:    5052049  HIT:    4969351  MISS:      82698
L1D PREFETCH  ACCESS:    6112079  HIT:    5888259  MISS:     223820
L1D WRITEBACK ACCESS:          0  HIT:          0  MISS:          0
L1D PREFETCH  REQUESTED:    6466534  ISSUED:    6289153  USEFUL:     132114  USELESS:      91834
L1D AVERAGE MISS LATENCY: 95.4428 cycles
L1I TOTAL     ACCESS:   16541734  HIT:   15478452  MISS:    1063282
L1I LOAD      ACCESS:    8254625  HIT:    8224775  MISS:      29850
L1I RFO       ACCESS:          0  HIT:          0  MISS:          0
L1I PREFETCH  ACCESS:    8287109  HIT:    7253677  MISS:    1033432
L1I WRITEBACK ACCESS:          0  HIT:          0  MISS:          0
L1I PREFETCH  REQUESTED:    8863059  ISSUED:    8457903  USEFUL:     737237  USELESS:     296152
L1I AVERAGE MISS LATENCY: 30.0415 cycles
L2C TOTAL     ACCESS:    2425832  HIT:    1945046  MISS:     480786
L2C LOAD      ACCESS:     182596  HIT:      86513  MISS:      96083
L2C RFO       ACCESS:      80904  HIT:      10219  MISS:      70685
L2C PREFETCH  ACCESS:    1954477  HIT:    1641016  MISS:     313461
L2C WRITEBACK ACCESS:     207855  HIT:     207298  MISS:        557
L2C PREFETCH  REQUESTED:    2196435  ISSUED:    2193476  USEFUL:      21029  USELESS:     292581
L2C AVERAGE MISS LATENCY: 125.799 cycles
LLC TOTAL     ACCESS:    1253180  HIT:     908517  MISS:     344663
LLC LOAD      ACCESS:      95986  HIT:      64542  MISS:      31444
LLC RFO       ACCESS:      70683  HIT:       6811  MISS:      63872
LLC PREFETCH  ACCESS:     918759  HIT:     669706  MISS:     249053
LLC WRITEBACK ACCESS:     167752  HIT:     167458  MISS:        294
LLC PREFETCH  REQUESTED:          0  ISSUED:          0  USEFUL:      28522  USELESS:     217343
LLC AVERAGE MISS LATENCY: 232.416 cycles
Major fault: 0 Minor fault: 16707
CPU 0 L1D next line prefetcher final stats

DRAM Statistics
 CHANNEL 0
 RQ ROW_BUFFER_HIT:     105359  ROW_BUFFER_MISS:     238968
 DBUS_CONGESTED:     231931
 WQ ROW_BUFFER_HIT:      35916  ROW_BUFFER_MISS:     122999  FULL:          0

 AVG_CONGESTED_CYCLE: 6

CPU 0 Branch Prediction Accuracy: 99.5889% MPKI: 0.70108 Average ROB Occupancy at Mispredict: 114.893

Branch types
NOT_BRANCH: 41473571 82.9471%
BRANCH_DIRECT_JUMP: 347941 0.695882%
BRANCH_INDIRECT: 148212 0.296424%
BRANCH_CONDITIONAL: 6817276 13.6346%
BRANCH_DIRECT_CALL: 570724 1.14145%
BRANCH_INDIRECT_CALL: 25133 0.050266%
BRANCH_RETURN: 617123 1.23425%
BRANCH_OTHER: 0 0%

