Initialize SIGNATURE TABLE
ST_SET: 1
ST_WAY: 256
ST_TAG_BIT: 16
ST_TAG_MASK: ffff

Initialize PATTERN TABLE
PT_SET: 512
PT_WAY: 4
SIG_DELTA_BIT: 7
C_SIG_BIT: 4
C_DELTA_BIT: 4

Initialize PREFETCH FILTER
FILTER_SET: 1024

*** ChampSim Multicore Out-of-Order Simulator ***

Warmup Instructions: 50000000
Simulation Instructions: 50000000
Number of CPUs: 1
LLC sets: 2048
LLC ways: 16
Off-chip DRAM Size: 4096 MB Channels: 1 Width: 64-bit Data Rate: 3200 MT/s

CPU 0 runs /Users/brandon/Documents/CoursesWi22/CSE240C/Homework1/ChampSim/ipc1_public/server_010.champsimtrace.xz
L1I D-JOLT instruction prefetcher has been constructed!
CPU 0 L1D next line prefetcher
Heartbeat CPU 0 instructions: 10000000 cycles: 3195201 heartbeat IPC: 3.12969 cumulative IPC: 3.12969 (Simulation time: 0 hr 1 min 31 sec) 
Heartbeat CPU 0 instructions: 20000002 cycles: 6387630 heartbeat IPC: 3.13241 cumulative IPC: 3.13105 (Simulation time: 0 hr 3 min 16 sec) 
Heartbeat CPU 0 instructions: 30000001 cycles: 9583750 heartbeat IPC: 3.12879 cumulative IPC: 3.1303 (Simulation time: 0 hr 5 min 3 sec) 
Heartbeat CPU 0 instructions: 40000000 cycles: 12775919 heartbeat IPC: 3.13267 cumulative IPC: 3.13089 (Simulation time: 0 hr 6 min 53 sec) 
Heartbeat CPU 0 instructions: 50000003 cycles: 15973502 heartbeat IPC: 3.12736 cumulative IPC: 3.13018 (Simulation time: 0 hr 8 min 49 sec) 

Warmup complete CPU 0 instructions: 50000003 cycles: 15973502 (Simulation time: 0 hr 8 min 49 sec) 

Heartbeat CPU 0 instructions: 60000001 cycles: 23258801 heartbeat IPC: 1.37263 cumulative IPC: 1.37263 (Simulation time: 0 hr 10 min 36 sec) 
Heartbeat CPU 0 instructions: 70000003 cycles: 30596399 heartbeat IPC: 1.36284 cumulative IPC: 1.36772 (Simulation time: 0 hr 12 min 20 sec) 
Heartbeat CPU 0 instructions: 80000003 cycles: 37968635 heartbeat IPC: 1.35644 cumulative IPC: 1.36394 (Simulation time: 0 hr 14 min 10 sec) 
Heartbeat CPU 0 instructions: 90000002 cycles: 45091954 heartbeat IPC: 1.40384 cumulative IPC: 1.3737 (Simulation time: 0 hr 15 min 53 sec) 
Heartbeat CPU 0 instructions: 100000003 cycles: 65736171 heartbeat IPC: 0.484397 cumulative IPC: 1.00477 (Simulation time: 0 hr 18 min 10 sec) 
Finished CPU 0 instructions: 50000000 cycles: 49762669 cumulative IPC: 1.00477 (Simulation time: 0 hr 18 min 10 sec) 

ChampSim completed all CPUs

Region of Interest Statistics

CPU 0 cumulative IPC: 1.00477 instructions: 50000000 cycles: 49762669
L1D TOTAL     ACCESS:   19889094  HIT:   16663922  MISS:    3225172
L1D LOAD      ACCESS:    7701332  HIT:    6107869  MISS:    1593463
L1D RFO       ACCESS:    4710676  HIT:    4616368  MISS:      94308
L1D PREFETCH  ACCESS:    7477086  HIT:    5939685  MISS:    1537401
L1D WRITEBACK ACCESS:          0  HIT:          0  MISS:          0
L1D PREFETCH  REQUESTED:    7734197  ISSUED:    7637132  USEFUL:     116876  USELESS:    1420497
L1D AVERAGE MISS LATENCY: 22.9033 cycles
L1I TOTAL     ACCESS:   18831854  HIT:   17012204  MISS:    1819650
L1I LOAD      ACCESS:    9967094  HIT:    9877371  MISS:      89723
L1I RFO       ACCESS:          0  HIT:          0  MISS:          0
L1I PREFETCH  ACCESS:    8864760  HIT:    7134833  MISS:    1729927
L1I WRITEBACK ACCESS:          0  HIT:          0  MISS:          0
L1I PREFETCH  REQUESTED:   10276229  ISSUED:    9275789  USEFUL:    1197833  USELESS:     532100
L1I AVERAGE MISS LATENCY: 29.7933 cycles
L2C TOTAL     ACCESS:    6481487  HIT:    5331460  MISS:    1150027
L2C LOAD      ACCESS:    1623678  HIT:    1381403  MISS:     242275
L2C RFO       ACCESS:      93291  HIT:      48854  MISS:      44437
L2C PREFETCH  ACCESS:    4499190  HIT:    3637387  MISS:     861803
L2C WRITEBACK ACCESS:     265328  HIT:     263816  MISS:       1512
L2C PREFETCH  REQUESTED:    5251953  ISSUED:    5248677  USEFUL:      25874  USELESS:     837038
L2C AVERAGE MISS LATENCY: 46.0712 cycles
LLC TOTAL     ACCESS:    2372473  HIT:    2238237  MISS:     134236
LLC LOAD      ACCESS:     242213  HIT:     223702  MISS:      18511
LLC RFO       ACCESS:      44435  HIT:      34964  MISS:       9471
LLC PREFETCH  ACCESS:    1935103  HIT:    1829150  MISS:     105953
LLC WRITEBACK ACCESS:     150722  HIT:     150421  MISS:        301
LLC PREFETCH  REQUESTED:          0  ISSUED:          0  USEFUL:      10283  USELESS:      96434
LLC AVERAGE MISS LATENCY: 174.888 cycles
Major fault: 0 Minor fault: 5608
CPU 0 L1D next line prefetcher final stats

DRAM Statistics
 CHANNEL 0
 RQ ROW_BUFFER_HIT:      19697  ROW_BUFFER_MISS:     114230
 DBUS_CONGESTED:      57042
 WQ ROW_BUFFER_HIT:      10072  ROW_BUFFER_MISS:      44456  FULL:          0

 AVG_CONGESTED_CYCLE: 5

CPU 0 Branch Prediction Accuracy: 99.5528% MPKI: 0.89798 Average ROB Occupancy at Mispredict: 129.532

Branch types
NOT_BRANCH: 39958787 79.9176%
BRANCH_DIRECT_JUMP: 449946 0.899892%
BRANCH_INDIRECT: 140210 0.28042%
BRANCH_CONDITIONAL: 7679677 15.3594%
BRANCH_DIRECT_CALL: 701578 1.40316%
BRANCH_INDIRECT_CALL: 168971 0.337942%
BRANCH_RETURN: 900560 1.80112%
BRANCH_OTHER: 0 0%

