Initialize SIGNATURE TABLE
ST_SET: 1
ST_WAY: 256
ST_TAG_BIT: 16
ST_TAG_MASK: ffff

Initialize PATTERN TABLE
PT_SET: 512
PT_WAY: 4
SIG_DELTA_BIT: 7
C_SIG_BIT: 4
C_DELTA_BIT: 4

Initialize PREFETCH FILTER
FILTER_SET: 1024

*** ChampSim Multicore Out-of-Order Simulator ***

Warmup Instructions: 50000000
Simulation Instructions: 50000000
Number of CPUs: 1
LLC sets: 2048
LLC ways: 16
Off-chip DRAM Size: 4096 MB Channels: 1 Width: 64-bit Data Rate: 3200 MT/s

CPU 0 runs /Users/brandon/Documents/CoursesWi22/CSE240C/Homework1/ChampSim/ipc1_public/server_032.champsimtrace.xz
L1I D-JOLT instruction prefetcher has been constructed!
CPU 0 L1D next line prefetcher
Heartbeat CPU 0 instructions: 10000002 cycles: 3521431 heartbeat IPC: 2.83976 cumulative IPC: 2.83976 (Simulation time: 0 hr 1 min 52 sec) 
Heartbeat CPU 0 instructions: 20000003 cycles: 7043239 heartbeat IPC: 2.83945 cumulative IPC: 2.8396 (Simulation time: 0 hr 3 min 40 sec) 
Heartbeat CPU 0 instructions: 30000000 cycles: 10565119 heartbeat IPC: 2.83939 cumulative IPC: 2.83953 (Simulation time: 0 hr 5 min 26 sec) 
Heartbeat CPU 0 instructions: 40000003 cycles: 14088634 heartbeat IPC: 2.83808 cumulative IPC: 2.83917 (Simulation time: 0 hr 7 min 9 sec) 
Heartbeat CPU 0 instructions: 50000000 cycles: 17610843 heartbeat IPC: 2.83913 cumulative IPC: 2.83916 (Simulation time: 0 hr 8 min 52 sec) 

Warmup complete CPU 0 instructions: 50000004 cycles: 17610844 (Simulation time: 0 hr 8 min 52 sec) 

Heartbeat CPU 0 instructions: 60000002 cycles: 24293915 heartbeat IPC: 1.49632 cumulative IPC: 1.49632 (Simulation time: 0 hr 10 min 33 sec) 
Heartbeat CPU 0 instructions: 70000000 cycles: 30973166 heartbeat IPC: 1.49717 cumulative IPC: 1.49675 (Simulation time: 0 hr 12 min 15 sec) 
*** Reached end of trace for Core: 0 Repeating trace: /Users/brandon/Documents/CoursesWi22/CSE240C/Homework1/ChampSim/ipc1_public/server_032.champsimtrace.xz
Heartbeat CPU 0 instructions: 80000003 cycles: 37650550 heartbeat IPC: 1.49759 cumulative IPC: 1.49703 (Simulation time: 0 hr 13 min 46 sec) 
Heartbeat CPU 0 instructions: 90000002 cycles: 44300220 heartbeat IPC: 1.50383 cumulative IPC: 1.49872 (Simulation time: 0 hr 15 min 11 sec) 
Heartbeat CPU 0 instructions: 100000001 cycles: 50958117 heartbeat IPC: 1.50198 cumulative IPC: 1.49937 (Simulation time: 0 hr 16 min 18 sec) 
Finished CPU 0 instructions: 50000002 cycles: 33347275 cumulative IPC: 1.49937 (Simulation time: 0 hr 16 min 18 sec) 

ChampSim completed all CPUs

Region of Interest Statistics

CPU 0 cumulative IPC: 1.49937 instructions: 50000002 cycles: 33347275
L1D TOTAL     ACCESS:   19809299  HIT:   17981402  MISS:    1827897
L1D LOAD      ACCESS:    6764740  HIT:    5971509  MISS:     793231
L1D RFO       ACCESS:    6557483  HIT:    6262764  MISS:     294719
L1D PREFETCH  ACCESS:    6487076  HIT:    5747129  MISS:     739947
L1D WRITEBACK ACCESS:          0  HIT:          0  MISS:          0
L1D PREFETCH  REQUESTED:    6813226  ISSUED:    6674272  USEFUL:     170759  USELESS:     569186
L1D AVERAGE MISS LATENCY: 18.5162 cycles
L1I TOTAL     ACCESS:   17856911  HIT:   14287733  MISS:    3569178
L1I LOAD      ACCESS:    9709069  HIT:    9655629  MISS:      53440
L1I RFO       ACCESS:          0  HIT:          0  MISS:          0
L1I PREFETCH  ACCESS:    8147842  HIT:    4632104  MISS:    3515738
L1I WRITEBACK ACCESS:          0  HIT:          0  MISS:          0
L1I PREFETCH  REQUESTED:    8559999  ISSUED:    8503428  USEFUL:    3162987  USELESS:     352751
L1I AVERAGE MISS LATENCY: 17.2377 cycles
L2C TOTAL     ACCESS:    7719689  HIT:    7207895  MISS:     511794
L2C LOAD      ACCESS:     819363  HIT:     726487  MISS:      92876
L2C RFO       ACCESS:     292724  HIT:     247681  MISS:      45043
L2C PREFETCH  ACCESS:    5971238  HIT:    5600449  MISS:     370789
L2C WRITEBACK ACCESS:     636364  HIT:     633278  MISS:       3086
L2C PREFETCH  REQUESTED:    4976280  ISSUED:    4965929  USEFUL:       4849  USELESS:     365892
L2C AVERAGE MISS LATENCY: 32.3491 cycles
LLC TOTAL     ACCESS:    1909621  HIT:    1903810  MISS:       5811
LLC LOAD      ACCESS:      92742  HIT:      92282  MISS:        460
LLC RFO       ACCESS:      45040  HIT:      45040  MISS:          0
LLC PREFETCH  ACCESS:    1694297  HIT:    1688975  MISS:       5322
LLC WRITEBACK ACCESS:      77542  HIT:      77513  MISS:         29
LLC PREFETCH  REQUESTED:          0  ISSUED:          0  USEFUL:        370  USELESS:       2066
LLC AVERAGE MISS LATENCY: 148.07 cycles
Major fault: 0 Minor fault: 1183
CPU 0 L1D next line prefetcher final stats

DRAM Statistics
 CHANNEL 0
 RQ ROW_BUFFER_HIT:       1480  ROW_BUFFER_MISS:       4302
 DBUS_CONGESTED:        626
 WQ ROW_BUFFER_HIT:          0  ROW_BUFFER_MISS:         15  FULL:          0

 AVG_CONGESTED_CYCLE: 4

CPU 0 Branch Prediction Accuracy: 99.8762% MPKI: 0.2296 Average ROB Occupancy at Mispredict: 174.476

Branch types
NOT_BRANCH: 40726164 81.4523%
BRANCH_DIRECT_JUMP: 508374 1.01675%
BRANCH_INDIRECT: 180051 0.360102%
BRANCH_CONDITIONAL: 5999664 11.9993%
BRANCH_DIRECT_CALL: 1086739 2.17348%
BRANCH_INDIRECT_CALL: 206109 0.412218%
BRANCH_RETURN: 1292837 2.58567%
BRANCH_OTHER: 0 0%

