Initialize SIGNATURE TABLE
ST_SET: 1
ST_WAY: 256
ST_TAG_BIT: 16
ST_TAG_MASK: ffff

Initialize PATTERN TABLE
PT_SET: 512
PT_WAY: 4
SIG_DELTA_BIT: 7
C_SIG_BIT: 4
C_DELTA_BIT: 4

Initialize PREFETCH FILTER
FILTER_SET: 1024

*** ChampSim Multicore Out-of-Order Simulator ***

Warmup Instructions: 50000000
Simulation Instructions: 50000000
Number of CPUs: 1
LLC sets: 2048
LLC ways: 16
Off-chip DRAM Size: 4096 MB Channels: 1 Width: 64-bit Data Rate: 3200 MT/s

CPU 0 runs /Users/brandon/Documents/CoursesWi22/CSE240C/Homework1/ChampSim/ipc1_public/server_022.champsimtrace.xz
L1I D-JOLT instruction prefetcher has been constructed!
CPU 0 L1D next line prefetcher
Heartbeat CPU 0 instructions: 10000002 cycles: 3624147 heartbeat IPC: 2.75927 cumulative IPC: 2.75927 (Simulation time: 0 hr 1 min 40 sec) 
Heartbeat CPU 0 instructions: 20000001 cycles: 7255004 heartbeat IPC: 2.75417 cumulative IPC: 2.75672 (Simulation time: 0 hr 3 min 37 sec) 
Heartbeat CPU 0 instructions: 30000003 cycles: 10879276 heartbeat IPC: 2.75918 cumulative IPC: 2.75754 (Simulation time: 0 hr 5 min 36 sec) 
Heartbeat CPU 0 instructions: 40000003 cycles: 14511372 heartbeat IPC: 2.75323 cumulative IPC: 2.75646 (Simulation time: 0 hr 7 min 37 sec) 
Heartbeat CPU 0 instructions: 50000002 cycles: 18133056 heartbeat IPC: 2.76115 cumulative IPC: 2.7574 (Simulation time: 0 hr 9 min 52 sec) 

Warmup complete CPU 0 instructions: 50000002 cycles: 18133056 (Simulation time: 0 hr 9 min 52 sec) 

Heartbeat CPU 0 instructions: 60000000 cycles: 34844166 heartbeat IPC: 0.598404 cumulative IPC: 0.598404 (Simulation time: 0 hr 12 min 43 sec) 
Heartbeat CPU 0 instructions: 70000001 cycles: 51737204 heartbeat IPC: 0.59196 cumulative IPC: 0.595165 (Simulation time: 0 hr 15 min 35 sec) 
Heartbeat CPU 0 instructions: 80000001 cycles: 68495575 heartbeat IPC: 0.596717 cumulative IPC: 0.595681 (Simulation time: 0 hr 18 min 0 sec) 
Heartbeat CPU 0 instructions: 90000003 cycles: 85574495 heartbeat IPC: 0.585517 cumulative IPC: 0.593107 (Simulation time: 0 hr 19 min 6 sec) 
Heartbeat CPU 0 instructions: 100000003 cycles: 102483621 heartbeat IPC: 0.591397 cumulative IPC: 0.592764 (Simulation time: 0 hr 19 min 50 sec) 
Finished CPU 0 instructions: 50000001 cycles: 84350565 cumulative IPC: 0.592764 (Simulation time: 0 hr 19 min 50 sec) 

ChampSim completed all CPUs

Region of Interest Statistics

CPU 0 cumulative IPC: 0.592764 instructions: 50000001 cycles: 84350565
L1D TOTAL     ACCESS:   18685267  HIT:   16474476  MISS:    2210791
L1D LOAD      ACCESS:    7051065  HIT:    6346990  MISS:     704075
L1D RFO       ACCESS:    5881062  HIT:    4901772  MISS:     979290
L1D PREFETCH  ACCESS:    5753140  HIT:    5225714  MISS:     527426
L1D WRITEBACK ACCESS:          0  HIT:          0  MISS:          0
L1D PREFETCH  REQUESTED:    7093041  ISSUED:    6884621  USEFUL:     206217  USELESS:     321214
L1D AVERAGE MISS LATENCY: 180.28 cycles
L1I TOTAL     ACCESS:   19564160  HIT:   15991046  MISS:    3573114
L1I LOAD      ACCESS:   10177834  HIT:   10139501  MISS:      38333
L1I RFO       ACCESS:          0  HIT:          0  MISS:          0
L1I PREFETCH  ACCESS:    9386326  HIT:    5851545  MISS:    3534781
L1I WRITEBACK ACCESS:          0  HIT:          0  MISS:          0
L1I PREFETCH  REQUESTED:   10064849  ISSUED:    9994783  USEFUL:    2760083  USELESS:     774708
L1I AVERAGE MISS LATENCY: 17.4062 cycles
L2C TOTAL     ACCESS:    8503661  HIT:    6636183  MISS:    1867478
L2C LOAD      ACCESS:     508829  HIT:     262105  MISS:     246724
L2C RFO       ACCESS:     978902  HIT:      19780  MISS:     959122
L2C PREFETCH  ACCESS:    5830809  HIT:    5171519  MISS:     659290
L2C WRITEBACK ACCESS:    1185121  HIT:    1182779  MISS:       2342
L2C PREFETCH  REQUESTED:    5133014  ISSUED:    5126211  USEFUL:      19639  USELESS:     639705
L2C AVERAGE MISS LATENCY: 219.166 cycles
LLC TOTAL     ACCESS:    4369958  HIT:    2948120  MISS:    1421838
LLC LOAD      ACCESS:     246605  HIT:     170518  MISS:      76087
LLC RFO       ACCESS:     959119  HIT:     140724  MISS:     818395
LLC PREFETCH  ACCESS:    2044867  HIT:    1519536  MISS:     525331
LLC WRITEBACK ACCESS:    1119367  HIT:    1117342  MISS:       2025
LLC PREFETCH  REQUESTED:          0  ISSUED:          0  USEFUL:      28810  USELESS:     496779
LLC AVERAGE MISS LATENCY: 292.441 cycles
Major fault: 0 Minor fault: 23509
CPU 0 L1D next line prefetcher final stats

DRAM Statistics
 CHANNEL 0
 RQ ROW_BUFFER_HIT:     413100  ROW_BUFFER_MISS:    1006474
 DBUS_CONGESTED:    1455296
 WQ ROW_BUFFER_HIT:     264214  ROW_BUFFER_MISS:     640243  FULL:          0

 AVG_CONGESTED_CYCLE: 6

CPU 0 Branch Prediction Accuracy: 99.8317% MPKI: 0.27564 Average ROB Occupancy at Mispredict: 222.769

Branch types
NOT_BRANCH: 41811152 83.6223%
BRANCH_DIRECT_JUMP: 445742 0.891484%
BRANCH_INDIRECT: 48876 0.097752%
BRANCH_CONDITIONAL: 5859407 11.7188%
BRANCH_DIRECT_CALL: 758267 1.51653%
BRANCH_INDIRECT_CALL: 159103 0.318206%
BRANCH_RETURN: 917372 1.83474%
BRANCH_OTHER: 0 0%

