Initialize SIGNATURE TABLE
ST_SET: 1
ST_WAY: 256
ST_TAG_BIT: 16
ST_TAG_MASK: ffff

Initialize PATTERN TABLE
PT_SET: 512
PT_WAY: 4
SIG_DELTA_BIT: 7
C_SIG_BIT: 4
C_DELTA_BIT: 4

Initialize PREFETCH FILTER
FILTER_SET: 1024

*** ChampSim Multicore Out-of-Order Simulator ***

Warmup Instructions: 50000000
Simulation Instructions: 50000000
Number of CPUs: 1
LLC sets: 2048
LLC ways: 16
Off-chip DRAM Size: 4096 MB Channels: 1 Width: 64-bit Data Rate: 3200 MT/s

CPU 0 runs /Users/brandon/Documents/CoursesWi22/CSE240C/Homework1/ChampSim/ipc1_public/server_034.champsimtrace.xz
L1I D-JOLT instruction prefetcher has been constructed!
CPU 0 L1D next line prefetcher
Heartbeat CPU 0 instructions: 10000000 cycles: 3331560 heartbeat IPC: 3.0016 cumulative IPC: 3.0016 (Simulation time: 0 hr 1 min 48 sec) 
Heartbeat CPU 0 instructions: 20000002 cycles: 6656052 heartbeat IPC: 3.00798 cumulative IPC: 3.00478 (Simulation time: 0 hr 3 min 33 sec) 
Heartbeat CPU 0 instructions: 30000003 cycles: 9988571 heartbeat IPC: 3.00073 cumulative IPC: 3.00343 (Simulation time: 0 hr 5 min 18 sec) 
Heartbeat CPU 0 instructions: 40000001 cycles: 13319278 heartbeat IPC: 3.00236 cumulative IPC: 3.00317 (Simulation time: 0 hr 6 min 59 sec) 
Heartbeat CPU 0 instructions: 50000000 cycles: 16648870 heartbeat IPC: 3.00337 cumulative IPC: 3.00321 (Simulation time: 0 hr 8 min 39 sec) 

Warmup complete CPU 0 instructions: 50000002 cycles: 16648871 (Simulation time: 0 hr 8 min 39 sec) 

Heartbeat CPU 0 instructions: 60000002 cycles: 22584423 heartbeat IPC: 1.68476 cumulative IPC: 1.68476 (Simulation time: 0 hr 10 min 18 sec) 
Heartbeat CPU 0 instructions: 70000003 cycles: 28929556 heartbeat IPC: 1.57601 cumulative IPC: 1.62857 (Simulation time: 0 hr 11 min 56 sec) 
Heartbeat CPU 0 instructions: 80000002 cycles: 34974135 heartbeat IPC: 1.65437 cumulative IPC: 1.63708 (Simulation time: 0 hr 13 min 27 sec) 
Heartbeat CPU 0 instructions: 90000002 cycles: 41017383 heartbeat IPC: 1.65474 cumulative IPC: 1.64146 (Simulation time: 0 hr 14 min 51 sec) 
Heartbeat CPU 0 instructions: 100000002 cycles: 47009664 heartbeat IPC: 1.66881 cumulative IPC: 1.64686 (Simulation time: 0 hr 16 min 6 sec) 
Finished CPU 0 instructions: 50000000 cycles: 30360793 cumulative IPC: 1.64686 (Simulation time: 0 hr 16 min 6 sec) 

ChampSim completed all CPUs

Region of Interest Statistics

CPU 0 cumulative IPC: 1.64686 instructions: 50000000 cycles: 30360793
L1D TOTAL     ACCESS:   18228504  HIT:   16804430  MISS:    1424074
L1D LOAD      ACCESS:    6123367  HIT:    5467294  MISS:     656073
L1D RFO       ACCESS:    6161979  HIT:    6019475  MISS:     142504
L1D PREFETCH  ACCESS:    5943158  HIT:    5317661  MISS:     625497
L1D WRITEBACK ACCESS:          0  HIT:          0  MISS:          0
L1D PREFETCH  REQUESTED:    6157506  ISSUED:    6067893  USEFUL:     141056  USELESS:     484410
L1D AVERAGE MISS LATENCY: 17.8724 cycles
L1I TOTAL     ACCESS:   20035394  HIT:   15877899  MISS:    4157495
L1I LOAD      ACCESS:    9679735  HIT:    9626578  MISS:      53157
L1I RFO       ACCESS:          0  HIT:          0  MISS:          0
L1I PREFETCH  ACCESS:   10355659  HIT:    6251321  MISS:    4104338
L1I WRITEBACK ACCESS:          0  HIT:          0  MISS:          0
L1I PREFETCH  REQUESTED:   11120059  ISSUED:   10845011  USEFUL:    3346934  USELESS:     757353
L1I AVERAGE MISS LATENCY: 15.0617 cycles
L2C TOTAL     ACCESS:    7723346  HIT:    7577029  MISS:     146317
L2C LOAD      ACCESS:     696028  HIT:     653017  MISS:      43011
L2C RFO       ACCESS:     140673  HIT:     130195  MISS:      10478
L2C PREFETCH  ACCESS:    6535915  HIT:    6445341  MISS:      90574
L2C WRITEBACK ACCESS:     350730  HIT:     348476  MISS:       2254
L2C PREFETCH  REQUESTED:    5626795  ISSUED:    5619618  USEFUL:       2959  USELESS:      87007
L2C AVERAGE MISS LATENCY: 38.8197 cycles
LLC TOTAL     ACCESS:    1545495  HIT:    1531673  MISS:      13822
LLC LOAD      ACCESS:      42900  HIT:      40104  MISS:       2796
LLC RFO       ACCESS:      10476  HIT:      10135  MISS:        341
LLC PREFETCH  ACCESS:    1447468  HIT:    1436834  MISS:      10634
LLC WRITEBACK ACCESS:      44651  HIT:      44600  MISS:         51
LLC PREFETCH  REQUESTED:          0  ISSUED:          0  USEFUL:       2900  USELESS:       5175
LLC AVERAGE MISS LATENCY: 160.53 cycles
Major fault: 0 Minor fault: 1174
CPU 0 L1D next line prefetcher final stats

DRAM Statistics
 CHANNEL 0
 RQ ROW_BUFFER_HIT:       3784  ROW_BUFFER_MISS:       9980
 DBUS_CONGESTED:       5869
 WQ ROW_BUFFER_HIT:       1139  ROW_BUFFER_MISS:       2887  FULL:          0

 AVG_CONGESTED_CYCLE: 5

CPU 0 Branch Prediction Accuracy: 99.926% MPKI: 0.14472 Average ROB Occupancy at Mispredict: 266.487

Branch types
NOT_BRANCH: 40221093 80.4422%
BRANCH_DIRECT_JUMP: 771319 1.54264%
BRANCH_INDIRECT: 108663 0.217326%
BRANCH_CONDITIONAL: 6375046 12.7501%
BRANCH_DIRECT_CALL: 1049638 2.09928%
BRANCH_INDIRECT_CALL: 212283 0.424566%
BRANCH_RETURN: 1261926 2.52385%
BRANCH_OTHER: 0 0%

