Initialize SIGNATURE TABLE
ST_SET: 1
ST_WAY: 256
ST_TAG_BIT: 16
ST_TAG_MASK: ffff

Initialize PATTERN TABLE
PT_SET: 512
PT_WAY: 4
SIG_DELTA_BIT: 7
C_SIG_BIT: 4
C_DELTA_BIT: 4

Initialize PREFETCH FILTER
FILTER_SET: 1024

*** ChampSim Multicore Out-of-Order Simulator ***

Warmup Instructions: 50000000
Simulation Instructions: 50000000
Number of CPUs: 1
LLC sets: 2048
LLC ways: 16
Off-chip DRAM Size: 4096 MB Channels: 1 Width: 64-bit Data Rate: 3200 MT/s

CPU 0 runs /Users/brandon/Documents/CoursesWi22/CSE240C/Homework1/ChampSim/ipc1_public/server_003.champsimtrace.xz
L1I D-JOLT instruction prefetcher has been constructed!
CPU 0 L1D next line prefetcher
Heartbeat CPU 0 instructions: 10000002 cycles: 3218491 heartbeat IPC: 3.10705 cumulative IPC: 3.10705 (Simulation time: 0 hr 1 min 31 sec) 
Heartbeat CPU 0 instructions: 20000000 cycles: 6534269 heartbeat IPC: 3.01588 cumulative IPC: 3.06079 (Simulation time: 0 hr 3 min 17 sec) 
Heartbeat CPU 0 instructions: 30000000 cycles: 9739910 heartbeat IPC: 3.1195 cumulative IPC: 3.08011 (Simulation time: 0 hr 5 min 6 sec) 
Heartbeat CPU 0 instructions: 40000001 cycles: 13154484 heartbeat IPC: 2.92862 cumulative IPC: 3.04079 (Simulation time: 0 hr 7 min 4 sec) 
Heartbeat CPU 0 instructions: 50000002 cycles: 16873502 heartbeat IPC: 2.68888 cumulative IPC: 2.96323 (Simulation time: 0 hr 9 min 12 sec) 

Warmup complete CPU 0 instructions: 50000002 cycles: 16873502 (Simulation time: 0 hr 9 min 12 sec) 

Heartbeat CPU 0 instructions: 60000000 cycles: 26141997 heartbeat IPC: 1.07892 cumulative IPC: 1.07892 (Simulation time: 0 hr 11 min 1 sec) 
Heartbeat CPU 0 instructions: 70000003 cycles: 35338894 heartbeat IPC: 1.08732 cumulative IPC: 1.08311 (Simulation time: 0 hr 12 min 38 sec) 
Heartbeat CPU 0 instructions: 80000000 cycles: 45431098 heartbeat IPC: 0.990864 cumulative IPC: 1.05051 (Simulation time: 0 hr 14 min 25 sec) 
Heartbeat CPU 0 instructions: 90000001 cycles: 55524362 heartbeat IPC: 0.99076 cumulative IPC: 1.03491 (Simulation time: 0 hr 16 min 9 sec) 
Heartbeat CPU 0 instructions: 100000001 cycles: 66250693 heartbeat IPC: 0.932285 cumulative IPC: 1.01261 (Simulation time: 0 hr 17 min 39 sec) 
Finished CPU 0 instructions: 50000003 cycles: 49377192 cumulative IPC: 1.01261 (Simulation time: 0 hr 17 min 39 sec) 

ChampSim completed all CPUs

Region of Interest Statistics

CPU 0 cumulative IPC: 1.01261 instructions: 50000003 cycles: 49377192
L1D TOTAL     ACCESS:   20008142  HIT:   18867287  MISS:    1140855
L1D LOAD      ACCESS:    7858220  HIT:    7328497  MISS:     529723
L1D RFO       ACCESS:    4552168  HIT:    4434763  MISS:     117405
L1D PREFETCH  ACCESS:    7597754  HIT:    7104027  MISS:     493727
L1D WRITEBACK ACCESS:          0  HIT:          0  MISS:          0
L1D PREFETCH  REQUESTED:    7918334  ISSUED:    7826852  USEFUL:     155545  USELESS:     338141
L1D AVERAGE MISS LATENCY: 54.4924 cycles
L1I TOTAL     ACCESS:   16749154  HIT:   15187582  MISS:    1561572
L1I LOAD      ACCESS:    9306623  HIT:    9146487  MISS:     160136
L1I RFO       ACCESS:          0  HIT:          0  MISS:          0
L1I PREFETCH  ACCESS:    7442531  HIT:    6041095  MISS:    1401436
L1I WRITEBACK ACCESS:          0  HIT:          0  MISS:          0
L1I PREFETCH  REQUESTED:    8829304  ISSUED:    7817536  USEFUL:     879997  USELESS:     521603
L1I AVERAGE MISS LATENCY: 32.7325 cycles
L2C TOTAL     ACCESS:    3703081  HIT:    2713153  MISS:     989928
L2C LOAD      ACCESS:     627182  HIT:     350127  MISS:     277055
L2C RFO       ACCESS:     114672  HIT:      40195  MISS:      74477
L2C PREFETCH  ACCESS:    2676953  HIT:    2039688  MISS:     637265
L2C WRITEBACK ACCESS:     284274  HIT:     283143  MISS:       1131
L2C PREFETCH  REQUESTED:    2440959  ISSUED:    2438628  USEFUL:      36032  USELESS:     598897
L2C AVERAGE MISS LATENCY: 76.593 cycles
LLC TOTAL     ACCESS:    1859946  HIT:    1507627  MISS:     352319
LLC LOAD      ACCESS:     276844  HIT:     204006  MISS:      72838
LLC RFO       ACCESS:      74474  HIT:      32394  MISS:      42080
LLC PREFETCH  ACCESS:    1343993  HIT:    1107809  MISS:     236184
LLC WRITEBACK ACCESS:     164635  HIT:     163418  MISS:       1217
LLC PREFETCH  REQUESTED:          0  ISSUED:          0  USEFUL:      38360  USELESS:     188663
LLC AVERAGE MISS LATENCY: 184.968 cycles
Major fault: 0 Minor fault: 7778
CPU 0 L1D next line prefetcher final stats

DRAM Statistics
 CHANNEL 0
 RQ ROW_BUFFER_HIT:      72259  ROW_BUFFER_MISS:     278781
 DBUS_CONGESTED:     171150
 WQ ROW_BUFFER_HIT:      24719  ROW_BUFFER_MISS:      77349  FULL:          0

 AVG_CONGESTED_CYCLE: 5

CPU 0 Branch Prediction Accuracy: 95.439% MPKI: 9.02702 Average ROB Occupancy at Mispredict: 67.3053

Branch types
NOT_BRANCH: 40104091 80.2082%
BRANCH_DIRECT_JUMP: 497928 0.995856%
BRANCH_INDIRECT: 130587 0.261174%
BRANCH_CONDITIONAL: 7219018 14.438%
BRANCH_DIRECT_CALL: 625807 1.25161%
BRANCH_INDIRECT_CALL: 389787 0.779574%
BRANCH_RETURN: 1032747 2.06549%
BRANCH_OTHER: 0 0%

