Initialize SIGNATURE TABLE
ST_SET: 1
ST_WAY: 256
ST_TAG_BIT: 16
ST_TAG_MASK: ffff

Initialize PATTERN TABLE
PT_SET: 512
PT_WAY: 4
SIG_DELTA_BIT: 7
C_SIG_BIT: 4
C_DELTA_BIT: 4

Initialize PREFETCH FILTER
FILTER_SET: 1024

*** ChampSim Multicore Out-of-Order Simulator ***

Warmup Instructions: 50000000
Simulation Instructions: 50000000
Number of CPUs: 1
LLC sets: 2048
LLC ways: 16
Off-chip DRAM Size: 4096 MB Channels: 1 Width: 64-bit Data Rate: 3200 MT/s

CPU 0 runs /Users/brandon/Documents/CoursesWi22/CSE240C/Homework1/ChampSim/ipc1_public/server_018.champsimtrace.xz
L1I D-JOLT instruction prefetcher has been constructed!
CPU 0 L1D next line prefetcher
Heartbeat CPU 0 instructions: 10000003 cycles: 3616714 heartbeat IPC: 2.76494 cumulative IPC: 2.76494 (Simulation time: 0 hr 1 min 39 sec) 
Heartbeat CPU 0 instructions: 20000001 cycles: 7238264 heartbeat IPC: 2.76125 cumulative IPC: 2.76309 (Simulation time: 0 hr 3 min 36 sec) 
Heartbeat CPU 0 instructions: 30000003 cycles: 10713444 heartbeat IPC: 2.87755 cumulative IPC: 2.80022 (Simulation time: 0 hr 5 min 25 sec) 
Heartbeat CPU 0 instructions: 40000000 cycles: 14225454 heartbeat IPC: 2.84737 cumulative IPC: 2.81186 (Simulation time: 0 hr 7 min 21 sec) 
Heartbeat CPU 0 instructions: 50000003 cycles: 17843159 heartbeat IPC: 2.76418 cumulative IPC: 2.80219 (Simulation time: 0 hr 9 min 32 sec) 

Warmup complete CPU 0 instructions: 50000003 cycles: 17843159 (Simulation time: 0 hr 9 min 32 sec) 

Heartbeat CPU 0 instructions: 60000000 cycles: 35347392 heartbeat IPC: 0.57129 cumulative IPC: 0.57129 (Simulation time: 0 hr 12 min 23 sec) 
Heartbeat CPU 0 instructions: 70000001 cycles: 52869310 heartbeat IPC: 0.570714 cumulative IPC: 0.571002 (Simulation time: 0 hr 15 min 15 sec) 
Heartbeat CPU 0 instructions: 80000000 cycles: 70329983 heartbeat IPC: 0.572716 cumulative IPC: 0.571572 (Simulation time: 0 hr 17 min 48 sec) 
Heartbeat CPU 0 instructions: 90000002 cycles: 87860517 heartbeat IPC: 0.570433 cumulative IPC: 0.571287 (Simulation time: 0 hr 19 min 0 sec) 
Heartbeat CPU 0 instructions: 100000001 cycles: 105387055 heartbeat IPC: 0.570563 cumulative IPC: 0.571142 (Simulation time: 0 hr 19 min 45 sec) 
Finished CPU 0 instructions: 50000002 cycles: 87543897 cumulative IPC: 0.571142 (Simulation time: 0 hr 19 min 45 sec) 

ChampSim completed all CPUs

Region of Interest Statistics

CPU 0 cumulative IPC: 0.571142 instructions: 50000002 cycles: 87543897
L1D TOTAL     ACCESS:   18616788  HIT:   16399187  MISS:    2217601
L1D LOAD      ACCESS:    7041991  HIT:    6319242  MISS:     722749
L1D RFO       ACCESS:    5809808  HIT:    4857530  MISS:     952278
L1D PREFETCH  ACCESS:    5764989  HIT:    5222415  MISS:     542574
L1D WRITEBACK ACCESS:          0  HIT:          0  MISS:          0
L1D PREFETCH  REQUESTED:    7083367  ISSUED:    6880821  USEFUL:     202902  USELESS:     339761
L1D AVERAGE MISS LATENCY: 177.824 cycles
L1I TOTAL     ACCESS:   19159617  HIT:   15599006  MISS:    3560611
L1I LOAD      ACCESS:   10136375  HIT:   10092730  MISS:      43645
L1I RFO       ACCESS:          0  HIT:          0  MISS:          0
L1I PREFETCH  ACCESS:    9023242  HIT:    5506276  MISS:    3516966
L1I WRITEBACK ACCESS:          0  HIT:          0  MISS:          0
L1I PREFETCH  REQUESTED:    9667458  ISSUED:    9604349  USEFUL:    2725382  USELESS:     791481
L1I AVERAGE MISS LATENCY: 17.8527 cycles
L2C TOTAL     ACCESS:    8503494  HIT:    6639450  MISS:    1864044
L2C LOAD      ACCESS:     538252  HIT:     271303  MISS:     266949
L2C RFO       ACCESS:     951750  HIT:      22044  MISS:     929706
L2C PREFETCH  ACCESS:    5843453  HIT:    5179132  MISS:     664321
L2C WRITEBACK ACCESS:    1170039  HIT:    1166971  MISS:       3068
L2C PREFETCH  REQUESTED:    5140966  ISSUED:    5136646  USEFUL:      21045  USELESS:     644263
L2C AVERAGE MISS LATENCY: 216.566 cycles
LLC TOTAL     ACCESS:    4298939  HIT:    2827684  MISS:    1471255
LLC LOAD      ACCESS:     266917  HIT:     163907  MISS:     103010
LLC RFO       ACCESS:     929702  HIT:     134524  MISS:     795178
LLC PREFETCH  ACCESS:    2001562  HIT:    1430420  MISS:     571142
LLC WRITEBACK ACCESS:    1100758  HIT:    1098833  MISS:       1925
LLC PREFETCH  REQUESTED:          0  ISSUED:          0  USEFUL:      32496  USELESS:     538687
LLC AVERAGE MISS LATENCY: 284.23 cycles
Major fault: 0 Minor fault: 22445
CPU 0 L1D next line prefetcher final stats

DRAM Statistics
 CHANNEL 0
 RQ ROW_BUFFER_HIT:     417634  ROW_BUFFER_MISS:    1051285
 DBUS_CONGESTED:    1464379
 WQ ROW_BUFFER_HIT:     253267  ROW_BUFFER_MISS:     648888  FULL:          0

 AVG_CONGESTED_CYCLE: 6

CPU 0 Branch Prediction Accuracy: 99.7114% MPKI: 0.47678 Average ROB Occupancy at Mispredict: 213.128

Branch types
NOT_BRANCH: 41741013 83.482%
BRANCH_DIRECT_JUMP: 458652 0.917304%
BRANCH_INDIRECT: 48282 0.096564%
BRANCH_CONDITIONAL: 5930881 11.8618%
BRANCH_DIRECT_CALL: 744230 1.48846%
BRANCH_INDIRECT_CALL: 166336 0.332672%
BRANCH_RETURN: 910589 1.82118%
BRANCH_OTHER: 0 0%

