Initialize SIGNATURE TABLE
ST_SET: 1
ST_WAY: 256
ST_TAG_BIT: 16
ST_TAG_MASK: ffff

Initialize PATTERN TABLE
PT_SET: 512
PT_WAY: 4
SIG_DELTA_BIT: 7
C_SIG_BIT: 4
C_DELTA_BIT: 4

Initialize PREFETCH FILTER
FILTER_SET: 1024

*** ChampSim Multicore Out-of-Order Simulator ***

Warmup Instructions: 50000000
Simulation Instructions: 50000000
Number of CPUs: 1
LLC sets: 2048
LLC ways: 16
Off-chip DRAM Size: 4096 MB Channels: 1 Width: 64-bit Data Rate: 3200 MT/s

CPU 0 runs /Users/brandon/Documents/CoursesWi22/CSE240C/Homework1/ChampSim/ipc1_public/server_027.champsimtrace.xz
L1I D-JOLT instruction prefetcher has been constructed!
CPU 0 L1D next line prefetcher
Heartbeat CPU 0 instructions: 10000001 cycles: 3528301 heartbeat IPC: 2.83423 cumulative IPC: 2.83423 (Simulation time: 0 hr 1 min 50 sec) 
Heartbeat CPU 0 instructions: 20000001 cycles: 7061320 heartbeat IPC: 2.83044 cumulative IPC: 2.83233 (Simulation time: 0 hr 3 min 35 sec) 
Heartbeat CPU 0 instructions: 30000002 cycles: 10589176 heartbeat IPC: 2.83458 cumulative IPC: 2.83308 (Simulation time: 0 hr 5 min 21 sec) 
Heartbeat CPU 0 instructions: 40000000 cycles: 14122966 heartbeat IPC: 2.82982 cumulative IPC: 2.83227 (Simulation time: 0 hr 7 min 2 sec) 
Heartbeat CPU 0 instructions: 50000001 cycles: 17650716 heartbeat IPC: 2.83467 cumulative IPC: 2.83275 (Simulation time: 0 hr 8 min 44 sec) 

Warmup complete CPU 0 instructions: 50000001 cycles: 17650716 (Simulation time: 0 hr 8 min 44 sec) 

Heartbeat CPU 0 instructions: 60000002 cycles: 24477393 heartbeat IPC: 1.46484 cumulative IPC: 1.46484 (Simulation time: 0 hr 10 min 24 sec) 
Heartbeat CPU 0 instructions: 70000003 cycles: 31265117 heartbeat IPC: 1.47325 cumulative IPC: 1.46903 (Simulation time: 0 hr 12 min 3 sec) 
Heartbeat CPU 0 instructions: 80000002 cycles: 38065654 heartbeat IPC: 1.47047 cumulative IPC: 1.46951 (Simulation time: 0 hr 13 min 34 sec) 
Heartbeat CPU 0 instructions: 90000001 cycles: 44942156 heartbeat IPC: 1.45423 cumulative IPC: 1.46566 (Simulation time: 0 hr 14 min 58 sec) 
Heartbeat CPU 0 instructions: 100000002 cycles: 51703367 heartbeat IPC: 1.47903 cumulative IPC: 1.46831 (Simulation time: 0 hr 16 min 11 sec) 
Finished CPU 0 instructions: 50000001 cycles: 34052651 cumulative IPC: 1.46831 (Simulation time: 0 hr 16 min 11 sec) 

ChampSim completed all CPUs

Region of Interest Statistics

CPU 0 cumulative IPC: 1.46831 instructions: 50000001 cycles: 34052651
L1D TOTAL     ACCESS:   19870315  HIT:   18268720  MISS:    1601595
L1D LOAD      ACCESS:    6936277  HIT:    6244209  MISS:     692068
L1D RFO       ACCESS:    6285127  HIT:    5999538  MISS:     285589
L1D PREFETCH  ACCESS:    6648911  HIT:    6024973  MISS:     623938
L1D WRITEBACK ACCESS:          0  HIT:          0  MISS:          0
L1D PREFETCH  REQUESTED:    6983712  ISSUED:    6855721  USEFUL:     149316  USELESS:     474633
L1D AVERAGE MISS LATENCY: 24.1795 cycles
L1I TOTAL     ACCESS:   16685146  HIT:   13200918  MISS:    3484228
L1I LOAD      ACCESS:    9493921  HIT:    9445429  MISS:      48492
L1I RFO       ACCESS:          0  HIT:          0  MISS:          0
L1I PREFETCH  ACCESS:    7191225  HIT:    3755489  MISS:    3435736
L1I WRITEBACK ACCESS:          0  HIT:          0  MISS:          0
L1I PREFETCH  REQUESTED:    7647634  ISSUED:    7526771  USEFUL:    2787504  USELESS:     648236
L1I AVERAGE MISS LATENCY: 19.6325 cycles
L2C TOTAL     ACCESS:    7035452  HIT:    6128231  MISS:     907221
L2C LOAD      ACCESS:     702184  HIT:     563868  MISS:     138316
L2C RFO       ACCESS:     283700  HIT:     180549  MISS:     103151
L2C PREFETCH  ACCESS:    5490335  HIT:    4829241  MISS:     661094
L2C WRITEBACK ACCESS:     559233  HIT:     554573  MISS:       4660
L2C PREFETCH  REQUESTED:    4671148  ISSUED:    4665276  USEFUL:      12559  USELESS:     648311
L2C AVERAGE MISS LATENCY: 37.2184 cycles
LLC TOTAL     ACCESS:    2364059  HIT:    2331213  MISS:      32846
LLC LOAD      ACCESS:     138150  HIT:     134751  MISS:       3399
LLC RFO       ACCESS:     103151  HIT:      89213  MISS:      13938
LLC PREFETCH  ACCESS:    1951180  HIT:    1935824  MISS:      15356
LLC WRITEBACK ACCESS:     171578  HIT:     171425  MISS:        153
LLC PREFETCH  REQUESTED:          0  ISSUED:          0  USEFUL:       1228  USELESS:      13692
LLC AVERAGE MISS LATENCY: 185.239 cycles
Major fault: 0 Minor fault: 2483
CPU 0 L1D next line prefetcher final stats

DRAM Statistics
 CHANNEL 0
 RQ ROW_BUFFER_HIT:      10913  ROW_BUFFER_MISS:      21777
 DBUS_CONGESTED:      22324
 WQ ROW_BUFFER_HIT:       1584  ROW_BUFFER_MISS:      14662  FULL:          0

 AVG_CONGESTED_CYCLE: 6

CPU 0 Branch Prediction Accuracy: 99.8082% MPKI: 0.35064 Average ROB Occupancy at Mispredict: 190.2

Branch types
NOT_BRANCH: 40857515 81.715%
BRANCH_DIRECT_JUMP: 526635 1.05327%
BRANCH_INDIRECT: 205902 0.411804%
BRANCH_CONDITIONAL: 6184050 12.3681%
BRANCH_DIRECT_CALL: 938468 1.87694%
BRANCH_INDIRECT_CALL: 174486 0.348972%
BRANCH_RETURN: 1112960 2.22592%
BRANCH_OTHER: 0 0%

