Initialize SIGNATURE TABLE
ST_SET: 1
ST_WAY: 256
ST_TAG_BIT: 16
ST_TAG_MASK: ffff

Initialize PATTERN TABLE
PT_SET: 512
PT_WAY: 4
SIG_DELTA_BIT: 7
C_SIG_BIT: 4
C_DELTA_BIT: 4

Initialize PREFETCH FILTER
FILTER_SET: 1024

*** ChampSim Multicore Out-of-Order Simulator ***

Warmup Instructions: 50000000
Simulation Instructions: 50000000
Number of CPUs: 1
LLC sets: 2048
LLC ways: 16
Off-chip DRAM Size: 4096 MB Channels: 1 Width: 64-bit Data Rate: 3200 MT/s

CPU 0 runs /Users/brandon/Documents/CoursesWi22/CSE240C/Homework1/ChampSim/ipc1_public/server_021.champsimtrace.xz
L1I D-JOLT instruction prefetcher has been constructed!
CPU 0 L1D next line prefetcher
Heartbeat CPU 0 instructions: 10000000 cycles: 3623328 heartbeat IPC: 2.75989 cumulative IPC: 2.75989 (Simulation time: 0 hr 1 min 40 sec) 
Heartbeat CPU 0 instructions: 20000000 cycles: 7241218 heartbeat IPC: 2.76404 cumulative IPC: 2.76197 (Simulation time: 0 hr 3 min 36 sec) 
Heartbeat CPU 0 instructions: 30000003 cycles: 10890126 heartbeat IPC: 2.74055 cumulative IPC: 2.75479 (Simulation time: 0 hr 5 min 34 sec) 
Heartbeat CPU 0 instructions: 40000001 cycles: 14503722 heartbeat IPC: 2.76733 cumulative IPC: 2.75791 (Simulation time: 0 hr 7 min 34 sec) 
Heartbeat CPU 0 instructions: 50000002 cycles: 18139402 heartbeat IPC: 2.75052 cumulative IPC: 2.75643 (Simulation time: 0 hr 9 min 48 sec) 

Warmup complete CPU 0 instructions: 50000002 cycles: 18139402 (Simulation time: 0 hr 9 min 48 sec) 

Heartbeat CPU 0 instructions: 60000001 cycles: 34980706 heartbeat IPC: 0.593778 cumulative IPC: 0.593778 (Simulation time: 0 hr 12 min 40 sec) 
Heartbeat CPU 0 instructions: 70000002 cycles: 51927130 heartbeat IPC: 0.590095 cumulative IPC: 0.591931 (Simulation time: 0 hr 15 min 34 sec) 
Heartbeat CPU 0 instructions: 80000001 cycles: 68735173 heartbeat IPC: 0.594953 cumulative IPC: 0.592935 (Simulation time: 0 hr 17 min 58 sec) 
Heartbeat CPU 0 instructions: 90000001 cycles: 85794979 heartbeat IPC: 0.586173 cumulative IPC: 0.59123 (Simulation time: 0 hr 19 min 5 sec) 
Heartbeat CPU 0 instructions: 100000002 cycles: 102594696 heartbeat IPC: 0.595248 cumulative IPC: 0.592029 (Simulation time: 0 hr 19 min 49 sec) 
Finished CPU 0 instructions: 50000000 cycles: 84455294 cumulative IPC: 0.592029 (Simulation time: 0 hr 19 min 49 sec) 

ChampSim completed all CPUs

Region of Interest Statistics

CPU 0 cumulative IPC: 0.592029 instructions: 50000000 cycles: 84455294
L1D TOTAL     ACCESS:   18702005  HIT:   16498625  MISS:    2203380
L1D LOAD      ACCESS:    7057800  HIT:    6355630  MISS:     702170
L1D RFO       ACCESS:    5879361  HIT:    4903770  MISS:     975591
L1D PREFETCH  ACCESS:    5764844  HIT:    5239225  MISS:     525619
L1D WRITEBACK ACCESS:          0  HIT:          0  MISS:          0
L1D PREFETCH  REQUESTED:    7101726  ISSUED:    6895919  USEFUL:     204426  USELESS:     321187
L1D AVERAGE MISS LATENCY: 182.353 cycles
L1I TOTAL     ACCESS:   19234835  HIT:   15747213  MISS:    3487622
L1I LOAD      ACCESS:   10139427  HIT:   10095174  MISS:      44253
L1I RFO       ACCESS:          0  HIT:          0  MISS:          0
L1I PREFETCH  ACCESS:    9095408  HIT:    5652039  MISS:    3443369
L1I WRITEBACK ACCESS:          0  HIT:          0  MISS:          0
L1I PREFETCH  REQUESTED:    9907918  ISSUED:    9748541  USEFUL:    2721562  USELESS:     721771
L1I AVERAGE MISS LATENCY: 17.5954 cycles
L2C TOTAL     ACCESS:    8365682  HIT:    6497525  MISS:    1868157
L2C LOAD      ACCESS:     507570  HIT:     258101  MISS:     249469
L2C RFO       ACCESS:     974986  HIT:      21372  MISS:     953614
L2C PREFETCH  ACCESS:    5703221  HIT:    5041153  MISS:     662068
L2C WRITEBACK ACCESS:    1179905  HIT:    1176899  MISS:       3006
L2C PREFETCH  REQUESTED:    5046378  ISSUED:    5039996  USEFUL:      19738  USELESS:     642243
L2C AVERAGE MISS LATENCY: 220.855 cycles
LLC TOTAL     ACCESS:    4189157  HIT:    2782174  MISS:    1406983
LLC LOAD      ACCESS:     249404  HIT:     167925  MISS:      81479
LLC RFO       ACCESS:     953604  HIT:     143678  MISS:     809926
LLC PREFETCH  ACCESS:    1872477  HIT:    1359327  MISS:     513150
LLC WRITEBACK ACCESS:    1113672  HIT:    1111244  MISS:       2428
LLC PREFETCH  REQUESTED:          0  ISSUED:          0  USEFUL:      29011  USELESS:     482762
LLC AVERAGE MISS LATENCY: 296.209 cycles
Major fault: 0 Minor fault: 22292
CPU 0 L1D next line prefetcher final stats

DRAM Statistics
 CHANNEL 0
 RQ ROW_BUFFER_HIT:     404556  ROW_BUFFER_MISS:     999656
 DBUS_CONGESTED:    1452016
 WQ ROW_BUFFER_HIT:     255546  ROW_BUFFER_MISS:     647593  FULL:          0

 AVG_CONGESTED_CYCLE: 6

CPU 0 Branch Prediction Accuracy: 99.8303% MPKI: 0.27836 Average ROB Occupancy at Mispredict: 227.278

Branch types
NOT_BRANCH: 41798549 83.5971%
BRANCH_DIRECT_JUMP: 445215 0.89043%
BRANCH_INDIRECT: 50481 0.100962%
BRANCH_CONDITIONAL: 5868246 11.7365%
BRANCH_DIRECT_CALL: 758228 1.51646%
BRANCH_INDIRECT_CALL: 160494 0.320988%
BRANCH_RETURN: 918718 1.83744%
BRANCH_OTHER: 0 0%

