Initialize SIGNATURE TABLE
ST_SET: 1
ST_WAY: 256
ST_TAG_BIT: 16
ST_TAG_MASK: ffff

Initialize PATTERN TABLE
PT_SET: 512
PT_WAY: 4
SIG_DELTA_BIT: 7
C_SIG_BIT: 4
C_DELTA_BIT: 4

Initialize PREFETCH FILTER
FILTER_SET: 1024

*** ChampSim Multicore Out-of-Order Simulator ***

Warmup Instructions: 50000000
Simulation Instructions: 50000000
Number of CPUs: 1
LLC sets: 2048
LLC ways: 16
Off-chip DRAM Size: 4096 MB Channels: 1 Width: 64-bit Data Rate: 3200 MT/s

CPU 0 runs /Users/brandon/Documents/CoursesWi22/CSE240C/Homework1/ChampSim/ipc1_public/server_009.champsimtrace.xz
L1I D-JOLT instruction prefetcher has been constructed!
CPU 0 L1D next line prefetcher
Heartbeat CPU 0 instructions: 10000003 cycles: 3197171 heartbeat IPC: 3.12777 cumulative IPC: 3.12777 (Simulation time: 0 hr 1 min 30 sec) 
Heartbeat CPU 0 instructions: 20000001 cycles: 6387891 heartbeat IPC: 3.13409 cumulative IPC: 3.13092 (Simulation time: 0 hr 3 min 15 sec) 
Heartbeat CPU 0 instructions: 30000002 cycles: 9593101 heartbeat IPC: 3.11992 cumulative IPC: 3.12725 (Simulation time: 0 hr 5 min 3 sec) 
Heartbeat CPU 0 instructions: 40000003 cycles: 12794738 heartbeat IPC: 3.1234 cumulative IPC: 3.12629 (Simulation time: 0 hr 6 min 52 sec) 
Heartbeat CPU 0 instructions: 50000000 cycles: 16053035 heartbeat IPC: 3.06909 cumulative IPC: 3.11468 (Simulation time: 0 hr 8 min 52 sec) 

Warmup complete CPU 0 instructions: 50000004 cycles: 16053036 (Simulation time: 0 hr 8 min 52 sec) 

Heartbeat CPU 0 instructions: 60000002 cycles: 31751017 heartbeat IPC: 0.637025 cumulative IPC: 0.637024 (Simulation time: 0 hr 11 min 18 sec) 
Heartbeat CPU 0 instructions: 70000003 cycles: 52839130 heartbeat IPC: 0.474201 cumulative IPC: 0.543684 (Simulation time: 0 hr 14 min 18 sec) 
Heartbeat CPU 0 instructions: 80000000 cycles: 60075606 heartbeat IPC: 1.38189 cumulative IPC: 0.681469 (Simulation time: 0 hr 16 min 1 sec) 
Heartbeat CPU 0 instructions: 90000001 cycles: 67458217 heartbeat IPC: 1.35453 cumulative IPC: 0.778132 (Simulation time: 0 hr 17 min 37 sec) 
Heartbeat CPU 0 instructions: 100000003 cycles: 74727845 heartbeat IPC: 1.37559 cumulative IPC: 0.852154 (Simulation time: 0 hr 18 min 31 sec) 
Finished CPU 0 instructions: 50000003 cycles: 58674810 cumulative IPC: 0.852155 (Simulation time: 0 hr 18 min 31 sec) 

ChampSim completed all CPUs

Region of Interest Statistics

CPU 0 cumulative IPC: 0.852155 instructions: 50000003 cycles: 58674810
L1D TOTAL     ACCESS:   21644850  HIT:   17065395  MISS:    4579455
L1D LOAD      ACCESS:    8640025  HIT:    6359628  MISS:    2280397
L1D RFO       ACCESS:    4579322  HIT:    4474869  MISS:     104453
L1D PREFETCH  ACCESS:    8425503  HIT:    6230898  MISS:    2194605
L1D WRITEBACK ACCESS:          0  HIT:          0  MISS:          0
L1D PREFETCH  REQUESTED:    8672297  ISSUED:    8574966  USEFUL:     106167  USELESS:    2088437
L1D AVERAGE MISS LATENCY: 20.4626 cycles
L1I TOTAL     ACCESS:   18960424  HIT:   17322515  MISS:    1637909
L1I LOAD      ACCESS:   10783554  HIT:   10685508  MISS:      98046
L1I RFO       ACCESS:          0  HIT:          0  MISS:          0
L1I PREFETCH  ACCESS:    8176870  HIT:    6637007  MISS:    1539863
L1I WRITEBACK ACCESS:          0  HIT:          0  MISS:          0
L1I PREFETCH  REQUESTED:   10234707  ISSUED:    8656954  USEFUL:    1068592  USELESS:     471252
L1I AVERAGE MISS LATENCY: 30.3595 cycles
L2C TOTAL     ACCESS:    8039759  HIT:    6976288  MISS:    1063471
L2C LOAD      ACCESS:    2325170  HIT:    2096931  MISS:     228239
L2C RFO       ACCESS:     103489  HIT:      62640  MISS:      40849
L2C PREFETCH  ACCESS:    5354257  HIT:    4561558  MISS:     792699
L2C WRITEBACK ACCESS:     256843  HIT:     255159  MISS:       1684
L2C PREFETCH  REQUESTED:    6448082  ISSUED:    6445528  USEFUL:      23135  USELESS:     768511
L2C AVERAGE MISS LATENCY: 46.9096 cycles
LLC TOTAL     ACCESS:    2505474  HIT:    2369979  MISS:     135495
LLC LOAD      ACCESS:     227994  HIT:     207769  MISS:      20225
LLC RFO       ACCESS:      40846  HIT:      31895  MISS:       8951
LLC PREFETCH  ACCESS:    2096360  HIT:    1990263  MISS:     106097
LLC WRITEBACK ACCESS:     140274  HIT:     140052  MISS:        222
LLC PREFETCH  REQUESTED:          0  ISSUED:          0  USEFUL:      11642  USELESS:      92765
LLC AVERAGE MISS LATENCY: 174.393 cycles
Major fault: 0 Minor fault: 6364
CPU 0 L1D next line prefetcher final stats

DRAM Statistics
 CHANNEL 0
 RQ ROW_BUFFER_HIT:      25499  ROW_BUFFER_MISS:     109756
 DBUS_CONGESTED:      57009
 WQ ROW_BUFFER_HIT:       9018  ROW_BUFFER_MISS:      37641  FULL:          0

 AVG_CONGESTED_CYCLE: 5

CPU 0 Branch Prediction Accuracy: 99.4713% MPKI: 1.11484 Average ROB Occupancy at Mispredict: 118.725

Branch types
NOT_BRANCH: 39456615 78.9132%
BRANCH_DIRECT_JUMP: 445350 0.8907%
BRANCH_INDIRECT: 131149 0.262298%
BRANCH_CONDITIONAL: 8130196 16.2604%
BRANCH_DIRECT_CALL: 732485 1.46497%
BRANCH_INDIRECT_CALL: 172369 0.344738%
BRANCH_RETURN: 931558 1.86312%
BRANCH_OTHER: 0 0%

