Initialize SIGNATURE TABLE
ST_SET: 1
ST_WAY: 256
ST_TAG_BIT: 16
ST_TAG_MASK: ffff

Initialize PATTERN TABLE
PT_SET: 512
PT_WAY: 4
SIG_DELTA_BIT: 7
C_SIG_BIT: 4
C_DELTA_BIT: 4

Initialize PREFETCH FILTER
FILTER_SET: 1024

*** ChampSim Multicore Out-of-Order Simulator ***

Warmup Instructions: 50000000
Simulation Instructions: 50000000
Number of CPUs: 1
LLC sets: 2048
LLC ways: 16
Off-chip DRAM Size: 4096 MB Channels: 1 Width: 64-bit Data Rate: 3200 MT/s

CPU 0 runs /Users/brandon/Documents/CoursesWi22/CSE240C/Homework1/ChampSim/ipc1_public/server_031.champsimtrace.xz
L1I D-JOLT instruction prefetcher has been constructed!
CPU 0 L1D next line prefetcher
Heartbeat CPU 0 instructions: 10000003 cycles: 3524538 heartbeat IPC: 2.83725 cumulative IPC: 2.83725 (Simulation time: 0 hr 1 min 52 sec) 
Heartbeat CPU 0 instructions: 20000002 cycles: 7048934 heartbeat IPC: 2.83737 cumulative IPC: 2.83731 (Simulation time: 0 hr 3 min 40 sec) 
Heartbeat CPU 0 instructions: 30000002 cycles: 10573112 heartbeat IPC: 2.83754 cumulative IPC: 2.83739 (Simulation time: 0 hr 5 min 27 sec) 
Heartbeat CPU 0 instructions: 40000003 cycles: 14092063 heartbeat IPC: 2.84176 cumulative IPC: 2.83848 (Simulation time: 0 hr 7 min 10 sec) 
Heartbeat CPU 0 instructions: 50000001 cycles: 17613946 heartbeat IPC: 2.83939 cumulative IPC: 2.83866 (Simulation time: 0 hr 8 min 53 sec) 

Warmup complete CPU 0 instructions: 50000001 cycles: 17613946 (Simulation time: 0 hr 8 min 53 sec) 

Heartbeat CPU 0 instructions: 60000001 cycles: 25148817 heartbeat IPC: 1.32716 cumulative IPC: 1.32716 (Simulation time: 0 hr 10 min 37 sec) 
Heartbeat CPU 0 instructions: 70000002 cycles: 32735325 heartbeat IPC: 1.31813 cumulative IPC: 1.32263 (Simulation time: 0 hr 12 min 22 sec) 
*** Reached end of trace for Core: 0 Repeating trace: /Users/brandon/Documents/CoursesWi22/CSE240C/Homework1/ChampSim/ipc1_public/server_031.champsimtrace.xz
Heartbeat CPU 0 instructions: 80000000 cycles: 40188459 heartbeat IPC: 1.34172 cumulative IPC: 1.32893 (Simulation time: 0 hr 13 min 55 sec) 
Heartbeat CPU 0 instructions: 90000003 cycles: 47680917 heartbeat IPC: 1.33468 cumulative IPC: 1.33036 (Simulation time: 0 hr 15 min 20 sec) 
Heartbeat CPU 0 instructions: 100000000 cycles: 55128024 heartbeat IPC: 1.3428 cumulative IPC: 1.33283 (Simulation time: 0 hr 16 min 22 sec) 
Finished CPU 0 instructions: 50000000 cycles: 37514080 cumulative IPC: 1.33283 (Simulation time: 0 hr 16 min 22 sec) 

ChampSim completed all CPUs

Region of Interest Statistics

CPU 0 cumulative IPC: 1.33283 instructions: 50000000 cycles: 37514080
L1D TOTAL     ACCESS:   19479868  HIT:   17575403  MISS:    1904465
L1D LOAD      ACCESS:    6754129  HIT:    5880446  MISS:     873683
L1D RFO       ACCESS:    6315889  HIT:    6023911  MISS:     291978
L1D PREFETCH  ACCESS:    6409850  HIT:    5671046  MISS:     738804
L1D WRITEBACK ACCESS:          0  HIT:          0  MISS:          0
L1D PREFETCH  REQUESTED:    6818066  ISSUED:    6701741  USEFUL:     173175  USELESS:     565634
L1D AVERAGE MISS LATENCY: 23.3339 cycles
L1I TOTAL     ACCESS:   18007397  HIT:   14274837  MISS:    3732560
L1I LOAD      ACCESS:    9744827  HIT:    9712634  MISS:      32193
L1I RFO       ACCESS:          0  HIT:          0  MISS:          0
L1I PREFETCH  ACCESS:    8262570  HIT:    4562203  MISS:    3700367
L1I WRITEBACK ACCESS:          0  HIT:          0  MISS:          0
L1I PREFETCH  REQUESTED:    8892258  ISSUED:    8711880  USEFUL:    3041916  USELESS:     658461
L1I AVERAGE MISS LATENCY: 18.1834 cycles
L2C TOTAL     ACCESS:    7948980  HIT:    7215143  MISS:     733837
L2C LOAD      ACCESS:     855451  HIT:     700958  MISS:     154493
L2C RFO       ACCESS:     289709  HIT:     242679  MISS:      47030
L2C PREFETCH  ACCESS:    6186878  HIT:    5656323  MISS:     530555
L2C WRITEBACK ACCESS:     616942  HIT:     615183  MISS:       1759
L2C PREFETCH  REQUESTED:    5321337  ISSUED:    5310280  USEFUL:       6164  USELESS:     523761
L2C AVERAGE MISS LATENCY: 42.1063 cycles
LLC TOTAL     ACCESS:    2267742  HIT:    2191216  MISS:      76526
LLC LOAD      ACCESS:     154312  HIT:     135670  MISS:      18642
LLC RFO       ACCESS:      47030  HIT:      42868  MISS:       4162
LLC PREFETCH  ACCESS:    1971366  HIT:    1918144  MISS:      53222
LLC WRITEBACK ACCESS:      95034  HIT:      94534  MISS:        500
LLC PREFETCH  REQUESTED:          0  ISSUED:          0  USEFUL:       2388  USELESS:      51587
LLC AVERAGE MISS LATENCY: 157.343 cycles
Major fault: 0 Minor fault: 6047
CPU 0 L1D next line prefetcher final stats

DRAM Statistics
 CHANNEL 0
 RQ ROW_BUFFER_HIT:      21032  ROW_BUFFER_MISS:      54988
 DBUS_CONGESTED:      29434
 WQ ROW_BUFFER_HIT:        720  ROW_BUFFER_MISS:       5015  FULL:          0

 AVG_CONGESTED_CYCLE: 4

CPU 0 Branch Prediction Accuracy: 99.6894% MPKI: 0.58048 Average ROB Occupancy at Mispredict: 142.372

Branch types
NOT_BRANCH: 40655657 81.3113%
BRANCH_DIRECT_JUMP: 546483 1.09297%
BRANCH_INDIRECT: 172433 0.344866%
BRANCH_CONDITIONAL: 6207594 12.4152%
BRANCH_DIRECT_CALL: 1018497 2.03699%
BRANCH_INDIRECT_CALL: 190373 0.380746%
BRANCH_RETURN: 1208855 2.41771%
BRANCH_OTHER: 0 0%

