Initialize SIGNATURE TABLE
ST_SET: 1
ST_WAY: 256
ST_TAG_BIT: 16
ST_TAG_MASK: ffff

Initialize PATTERN TABLE
PT_SET: 512
PT_WAY: 4
SIG_DELTA_BIT: 7
C_SIG_BIT: 4
C_DELTA_BIT: 4

Initialize PREFETCH FILTER
FILTER_SET: 1024

*** ChampSim Multicore Out-of-Order Simulator ***

Warmup Instructions: 50000000
Simulation Instructions: 50000000
Number of CPUs: 1
LLC sets: 2048
LLC ways: 16
Off-chip DRAM Size: 4096 MB Channels: 1 Width: 64-bit Data Rate: 3200 MT/s

CPU 0 runs /Users/brandon/Documents/CoursesWi22/CSE240C/Homework1/ChampSim/ipc1_public/spec_gcc_001.champsimtrace.xz
L1I D-JOLT instruction prefetcher has been constructed!
CPU 0 L1D next line prefetcher
Heartbeat CPU 0 instructions: 10000003 cycles: 3219277 heartbeat IPC: 3.10629 cumulative IPC: 3.10629 (Simulation time: 0 hr 1 min 37 sec) 
Heartbeat CPU 0 instructions: 20000002 cycles: 6463979 heartbeat IPC: 3.08195 cumulative IPC: 3.09407 (Simulation time: 0 hr 3 min 14 sec) 
Heartbeat CPU 0 instructions: 30000000 cycles: 9664942 heartbeat IPC: 3.12406 cumulative IPC: 3.104 (Simulation time: 0 hr 4 min 47 sec) 
Heartbeat CPU 0 instructions: 40000001 cycles: 12905209 heartbeat IPC: 3.08617 cumulative IPC: 3.09952 (Simulation time: 0 hr 6 min 18 sec) 
Heartbeat CPU 0 instructions: 50000001 cycles: 16145522 heartbeat IPC: 3.08612 cumulative IPC: 3.09683 (Simulation time: 0 hr 7 min 49 sec) 

Warmup complete CPU 0 instructions: 50000001 cycles: 16145522 (Simulation time: 0 hr 7 min 49 sec) 

Heartbeat CPU 0 instructions: 60000000 cycles: 24015095 heartbeat IPC: 1.27072 cumulative IPC: 1.27072 (Simulation time: 0 hr 9 min 8 sec) 
Heartbeat CPU 0 instructions: 70000002 cycles: 31970183 heartbeat IPC: 1.25706 cumulative IPC: 1.26385 (Simulation time: 0 hr 10 min 29 sec) 
Heartbeat CPU 0 instructions: 80000000 cycles: 39534730 heartbeat IPC: 1.32196 cumulative IPC: 1.28264 (Simulation time: 0 hr 11 min 45 sec) 
Heartbeat CPU 0 instructions: 90000001 cycles: 47451834 heartbeat IPC: 1.26309 cumulative IPC: 1.2777 (Simulation time: 0 hr 12 min 58 sec) 
Heartbeat CPU 0 instructions: 100000000 cycles: 55675226 heartbeat IPC: 1.21604 cumulative IPC: 1.26487 (Simulation time: 0 hr 14 min 11 sec) 
Finished CPU 0 instructions: 50000000 cycles: 39529708 cumulative IPC: 1.26487 (Simulation time: 0 hr 14 min 11 sec) 

ChampSim completed all CPUs

Region of Interest Statistics

CPU 0 cumulative IPC: 1.26487 instructions: 50000000 cycles: 39529708
L1D TOTAL     ACCESS:   19319953  HIT:   18214800  MISS:    1105153
L1D LOAD      ACCESS:    7231930  HIT:    6752333  MISS:     479597
L1D RFO       ACCESS:    5116228  HIT:    5036606  MISS:      79622
L1D PREFETCH  ACCESS:    6971795  HIT:    6425861  MISS:     545934
L1D WRITEBACK ACCESS:          0  HIT:          0  MISS:          0
L1D PREFETCH  REQUESTED:    7276366  ISSUED:    7178430  USEFUL:     275704  USELESS:     270243
L1D AVERAGE MISS LATENCY: 26.0429 cycles
L1I TOTAL     ACCESS:   16088357  HIT:   15019022  MISS:    1069335
L1I LOAD      ACCESS:    9312028  HIT:    9255354  MISS:      56674
L1I RFO       ACCESS:          0  HIT:          0  MISS:          0
L1I PREFETCH  ACCESS:    6776329  HIT:    5763668  MISS:    1012661
L1I WRITEBACK ACCESS:          0  HIT:          0  MISS:          0
L1I PREFETCH  REQUESTED:    7008018  ISSUED:    6967556  USEFUL:     492928  USELESS:     519769
L1I AVERAGE MISS LATENCY: 17.4678 cycles
L2C TOTAL     ACCESS:    3492298  HIT:    3225254  MISS:     267044
L2C LOAD      ACCESS:     502755  HIT:     409766  MISS:      92989
L2C RFO       ACCESS:      74993  HIT:      36548  MISS:      38445
L2C PREFETCH  ACCESS:    2660789  HIT:    2525548  MISS:     135241
L2C WRITEBACK ACCESS:     253761  HIT:     253392  MISS:        369
L2C PREFETCH  REQUESTED:    2146160  ISSUED:    2145906  USEFUL:      33418  USELESS:     101611
L2C AVERAGE MISS LATENCY: 61.6042 cycles
LLC TOTAL     ACCESS:     759160  HIT:     682662  MISS:      76498
LLC LOAD      ACCESS:      92795  HIT:      81040  MISS:      11755
LLC RFO       ACCESS:      38444  HIT:      17101  MISS:      21343
LLC PREFETCH  ACCESS:     534611  HIT:     492226  MISS:      42385
LLC WRITEBACK ACCESS:      93310  HIT:      92295  MISS:       1015
LLC PREFETCH  REQUESTED:          0  ISSUED:          0  USEFUL:      13535  USELESS:      31076
LLC AVERAGE MISS LATENCY: 183.174 cycles
Major fault: 0 Minor fault: 6867
CPU 0 L1D next line prefetcher final stats

DRAM Statistics
 CHANNEL 0
 RQ ROW_BUFFER_HIT:      19659  ROW_BUFFER_MISS:      55817
 DBUS_CONGESTED:      36505
 WQ ROW_BUFFER_HIT:       4734  ROW_BUFFER_MISS:      24067  FULL:          0

 AVG_CONGESTED_CYCLE: 6

CPU 0 Branch Prediction Accuracy: 95.8872% MPKI: 9.67286 Average ROB Occupancy at Mispredict: 67.1249

Branch types
NOT_BRANCH: 38240102 76.4802%
BRANCH_DIRECT_JUMP: 653296 1.30659%
BRANCH_INDIRECT: 37098 0.074196%
BRANCH_CONDITIONAL: 8897819 17.7956%
BRANCH_DIRECT_CALL: 992620 1.98524%
BRANCH_INDIRECT_CALL: 93046 0.186092%
BRANCH_RETURN: 1085674 2.17135%
BRANCH_OTHER: 0 0%

