Initialize SIGNATURE TABLE
ST_SET: 1
ST_WAY: 256
ST_TAG_BIT: 16
ST_TAG_MASK: ffff

Initialize PATTERN TABLE
PT_SET: 512
PT_WAY: 4
SIG_DELTA_BIT: 7
C_SIG_BIT: 4
C_DELTA_BIT: 4

Initialize PREFETCH FILTER
FILTER_SET: 1024

*** ChampSim Multicore Out-of-Order Simulator ***

Warmup Instructions: 50000000
Simulation Instructions: 50000000
Number of CPUs: 1
LLC sets: 2048
LLC ways: 16
Off-chip DRAM Size: 4096 MB Channels: 1 Width: 64-bit Data Rate: 3200 MT/s

CPU 0 runs /Users/brandon/Documents/CoursesWi22/CSE240C/Homework1/ChampSim/ipc1_public/spec_gobmk_002.champsimtrace.xz
L1I D-JOLT instruction prefetcher has been constructed!
CPU 0 L1D next line prefetcher
Heartbeat CPU 0 instructions: 10000001 cycles: 3287451 heartbeat IPC: 3.04187 cumulative IPC: 3.04187 (Simulation time: 0 hr 1 min 30 sec) 
Heartbeat CPU 0 instructions: 20000000 cycles: 6618969 heartbeat IPC: 3.00163 cumulative IPC: 3.02162 (Simulation time: 0 hr 2 min 58 sec) 
Heartbeat CPU 0 instructions: 30000000 cycles: 9956840 heartbeat IPC: 2.99592 cumulative IPC: 3.013 (Simulation time: 0 hr 4 min 26 sec) 
Heartbeat CPU 0 instructions: 40000000 cycles: 13266267 heartbeat IPC: 3.02167 cumulative IPC: 3.01517 (Simulation time: 0 hr 5 min 56 sec) 
Heartbeat CPU 0 instructions: 50000003 cycles: 16529788 heartbeat IPC: 3.06418 cumulative IPC: 3.02484 (Simulation time: 0 hr 7 min 22 sec) 

Warmup complete CPU 0 instructions: 50000003 cycles: 16529788 (Simulation time: 0 hr 7 min 22 sec) 

Heartbeat CPU 0 instructions: 60000003 cycles: 23903929 heartbeat IPC: 1.35609 cumulative IPC: 1.35609 (Simulation time: 0 hr 8 min 24 sec) 
Heartbeat CPU 0 instructions: 70000000 cycles: 31223337 heartbeat IPC: 1.36623 cumulative IPC: 1.36114 (Simulation time: 0 hr 9 min 24 sec) 
Heartbeat CPU 0 instructions: 80000002 cycles: 38411470 heartbeat IPC: 1.39118 cumulative IPC: 1.37101 (Simulation time: 0 hr 10 min 25 sec) 
Heartbeat CPU 0 instructions: 90000001 cycles: 45924642 heartbeat IPC: 1.331 cumulative IPC: 1.36078 (Simulation time: 0 hr 11 min 20 sec) 
Heartbeat CPU 0 instructions: 100000003 cycles: 53665842 heartbeat IPC: 1.29179 cumulative IPC: 1.3464 (Simulation time: 0 hr 12 min 16 sec) 
Finished CPU 0 instructions: 50000000 cycles: 37136054 cumulative IPC: 1.3464 (Simulation time: 0 hr 12 min 16 sec) 

ChampSim completed all CPUs

Region of Interest Statistics

CPU 0 cumulative IPC: 1.3464 instructions: 50000000 cycles: 37136054
L1D TOTAL     ACCESS:   17622000  HIT:   17498867  MISS:     123133
L1D LOAD      ACCESS:    6656683  HIT:    6622411  MISS:      34272
L1D RFO       ACCESS:    4387690  HIT:    4345018  MISS:      42672
L1D PREFETCH  ACCESS:    6577627  HIT:    6531438  MISS:      46189
L1D WRITEBACK ACCESS:          0  HIT:          0  MISS:          0
L1D PREFETCH  REQUESTED:    6659124  ISSUED:    6591819  USEFUL:      17116  USELESS:      29256
L1D AVERAGE MISS LATENCY: 50.5332 cycles
L1I TOTAL     ACCESS:   17397845  HIT:   14776481  MISS:    2621364
L1I LOAD      ACCESS:    8902514  HIT:    8842799  MISS:      59715
L1I RFO       ACCESS:          0  HIT:          0  MISS:          0
L1I PREFETCH  ACCESS:    8495331  HIT:    5933682  MISS:    2561649
L1I WRITEBACK ACCESS:          0  HIT:          0  MISS:          0
L1I PREFETCH  REQUESTED:    9202380  ISSUED:    8578304  USEFUL:    1229703  USELESS:    1331864
L1I AVERAGE MISS LATENCY: 14.588 cycles
L2C TOTAL     ACCESS:    4030539  HIT:    3993171  MISS:      37368
L2C LOAD      ACCESS:      88189  HIT:      74661  MISS:      13528
L2C RFO       ACCESS:      42535  HIT:      39700  MISS:       2835
L2C PREFETCH  ACCESS:    3825608  HIT:    3804744  MISS:      20864
L2C WRITEBACK ACCESS:      74207  HIT:      74066  MISS:        141
L2C PREFETCH  REQUESTED:    2133735  ISSUED:    2133720  USEFUL:       2345  USELESS:      18923
L2C AVERAGE MISS LATENCY: 125.612 cycles
LLC TOTAL     ACCESS:     113441  HIT:      80750  MISS:      32691
LLC LOAD      ACCESS:      13528  HIT:       4927  MISS:       8601
LLC RFO       ACCESS:       2835  HIT:       1203  MISS:       1632
LLC PREFETCH  ACCESS:      78995  HIT:      57034  MISS:      21961
LLC WRITEBACK ACCESS:      18083  HIT:      17586  MISS:        497
LLC PREFETCH  REQUESTED:          0  ISSUED:          0  USEFUL:       2083  USELESS:      19769
LLC AVERAGE MISS LATENCY: 183.134 cycles
Major fault: 0 Minor fault: 2781
CPU 0 L1D next line prefetcher final stats

DRAM Statistics
 CHANNEL 0
 RQ ROW_BUFFER_HIT:       2620  ROW_BUFFER_MISS:      29574
 DBUS_CONGESTED:      15323
 WQ ROW_BUFFER_HIT:        734  ROW_BUFFER_MISS:      13025  FULL:          0

 AVG_CONGESTED_CYCLE: 4

CPU 0 Branch Prediction Accuracy: 93.9974% MPKI: 10.2447 Average ROB Occupancy at Mispredict: 40.3101

Branch types
NOT_BRANCH: 41466051 82.9321%
BRANCH_DIRECT_JUMP: 464313 0.928626%
BRANCH_INDIRECT: 32 6.4e-05%
BRANCH_CONDITIONAL: 7069451 14.1389%
BRANCH_DIRECT_CALL: 499587 0.999174%
BRANCH_INDIRECT_CALL: 342 0.000684%
BRANCH_RETURN: 499906 0.999812%
BRANCH_OTHER: 0 0%

