Initialize SIGNATURE TABLE
ST_SET: 1
ST_WAY: 256
ST_TAG_BIT: 16
ST_TAG_MASK: ffff

Initialize PATTERN TABLE
PT_SET: 512
PT_WAY: 4
SIG_DELTA_BIT: 7
C_SIG_BIT: 4
C_DELTA_BIT: 4

Initialize PREFETCH FILTER
FILTER_SET: 1024

*** ChampSim Multicore Out-of-Order Simulator ***

Warmup Instructions: 50000000
Simulation Instructions: 50000000
Number of CPUs: 1
LLC sets: 2048
LLC ways: 16
Off-chip DRAM Size: 4096 MB Channels: 1 Width: 64-bit Data Rate: 3200 MT/s

CPU 0 runs /Users/brandon/Documents/CoursesWi22/CSE240C/Homework1/ChampSim/ipc1_public/spec_gcc_003.champsimtrace.xz
L1I D-JOLT instruction prefetcher has been constructed!
CPU 0 L1D next line prefetcher
Heartbeat CPU 0 instructions: 10000001 cycles: 3480924 heartbeat IPC: 2.8728 cumulative IPC: 2.8728 (Simulation time: 0 hr 1 min 20 sec) 
Heartbeat CPU 0 instructions: 20000000 cycles: 6949343 heartbeat IPC: 2.88316 cumulative IPC: 2.87797 (Simulation time: 0 hr 2 min 33 sec) 
Heartbeat CPU 0 instructions: 30000002 cycles: 10389237 heartbeat IPC: 2.90707 cumulative IPC: 2.8876 (Simulation time: 0 hr 3 min 46 sec) 
Heartbeat CPU 0 instructions: 40000000 cycles: 13858060 heartbeat IPC: 2.88282 cumulative IPC: 2.88641 (Simulation time: 0 hr 4 min 59 sec) 
Heartbeat CPU 0 instructions: 50000001 cycles: 17166137 heartbeat IPC: 3.0229 cumulative IPC: 2.91271 (Simulation time: 0 hr 6 min 8 sec) 

Warmup complete CPU 0 instructions: 50000001 cycles: 17166137 (Simulation time: 0 hr 6 min 8 sec) 

Heartbeat CPU 0 instructions: 60000000 cycles: 56603109 heartbeat IPC: 0.253569 cumulative IPC: 0.253569 (Simulation time: 0 hr 9 min 16 sec) 
Heartbeat CPU 0 instructions: 70000000 cycles: 98872912 heartbeat IPC: 0.236575 cumulative IPC: 0.244778 (Simulation time: 0 hr 12 min 23 sec) 
Heartbeat CPU 0 instructions: 80000003 cycles: 141979754 heartbeat IPC: 0.231982 cumulative IPC: 0.240358 (Simulation time: 0 hr 15 min 8 sec) 
Heartbeat CPU 0 instructions: 90000002 cycles: 177999490 heartbeat IPC: 0.277626 cumulative IPC: 0.248705 (Simulation time: 0 hr 16 min 31 sec) 
Heartbeat CPU 0 instructions: 100000001 cycles: 223512342 heartbeat IPC: 0.219718 cumulative IPC: 0.242311 (Simulation time: 0 hr 17 min 6 sec) 
Finished CPU 0 instructions: 50000000 cycles: 206346205 cumulative IPC: 0.242311 (Simulation time: 0 hr 17 min 6 sec) 

ChampSim completed all CPUs

Region of Interest Statistics

CPU 0 cumulative IPC: 0.242311 instructions: 50000000 cycles: 206346205
L1D TOTAL     ACCESS:   16807558  HIT:   11083264  MISS:    5724294
L1D LOAD      ACCESS:    4547286  HIT:    4163792  MISS:     383494
L1D RFO       ACCESS:    8203320  HIT:    3151691  MISS:    5051629
L1D PREFETCH  ACCESS:    4056952  HIT:    3767781  MISS:     289171
L1D WRITEBACK ACCESS:          0  HIT:          0  MISS:          0
L1D PREFETCH  REQUESTED:    4564485  ISSUED:    4504572  USEFUL:     151791  USELESS:     137560
L1D AVERAGE MISS LATENCY: 492.043 cycles
L1I TOTAL     ACCESS:   16781295  HIT:   15239620  MISS:    1541675
L1I LOAD      ACCESS:   11278977  HIT:   11211396  MISS:      67581
L1I RFO       ACCESS:          0  HIT:          0  MISS:          0
L1I PREFETCH  ACCESS:    5502318  HIT:    4028224  MISS:    1474094
L1I WRITEBACK ACCESS:          0  HIT:          0  MISS:          0
L1I PREFETCH  REQUESTED:    6308195  ISSUED:    5950720  USEFUL:     831849  USELESS:     642268
L1I AVERAGE MISS LATENCY: 52.86 cycles
L2C TOTAL     ACCESS:   12882167  HIT:    6771779  MISS:    6110388
L2C LOAD      ACCESS:     239865  HIT:      66415  MISS:     173450
L2C RFO       ACCESS:    5049830  HIT:       6439  MISS:    5043391
L2C PREFETCH  ACCESS:    2434594  HIT:    1541170  MISS:     893424
L2C WRITEBACK ACCESS:    5157878  HIT:    5157755  MISS:        123
L2C PREFETCH  REQUESTED:    2134276  ISSUED:    2134223  USEFUL:      25650  USELESS:     865183
L2C AVERAGE MISS LATENCY: 460.237 cycles
LLC TOTAL     ACCESS:   12053004  HIT:    7405215  MISS:    4647789
LLC LOAD      ACCESS:     173404  HIT:     130092  MISS:      43312
LLC RFO       ACCESS:    5043391  HIT:     726674  MISS:    4316717
LLC PREFETCH  ACCESS:    1702767  HIT:    1415007  MISS:     287760
LLC WRITEBACK ACCESS:    5133442  HIT:    5133442  MISS:          0
LLC PREFETCH  REQUESTED:          0  ISSUED:          0  USEFUL:      12173  USELESS:     275492
LLC AVERAGE MISS LATENCY: 575.066 cycles
Major fault: 0 Minor fault: 2819
CPU 0 L1D next line prefetcher final stats

DRAM Statistics
 CHANNEL 0
 RQ ROW_BUFFER_HIT:    1406763  ROW_BUFFER_MISS:    3240914
 DBUS_CONGESTED:    7987405
 WQ ROW_BUFFER_HIT:    1151953  ROW_BUFFER_MISS:    3193873  FULL:          0

 AVG_CONGESTED_CYCLE: 6

CPU 0 Branch Prediction Accuracy: 99.665% MPKI: 0.78342 Average ROB Occupancy at Mispredict: 124.641

Branch types
NOT_BRANCH: 38305856 76.6117%
BRANCH_DIRECT_JUMP: 384281 0.768562%
BRANCH_INDIRECT: 71949 0.143898%
BRANCH_CONDITIONAL: 9879825 19.7597%
BRANCH_DIRECT_CALL: 650586 1.30117%
BRANCH_INDIRECT_CALL: 28456 0.056912%
BRANCH_RETURN: 679046 1.35809%
BRANCH_OTHER: 0 0%

