Initialize SIGNATURE TABLE
ST_SET: 1
ST_WAY: 256
ST_TAG_BIT: 16
ST_TAG_MASK: ffff

Initialize PATTERN TABLE
PT_SET: 512
PT_WAY: 4
SIG_DELTA_BIT: 7
C_SIG_BIT: 4
C_DELTA_BIT: 4

Initialize PREFETCH FILTER
FILTER_SET: 1024

*** ChampSim Multicore Out-of-Order Simulator ***

Warmup Instructions: 50000000
Simulation Instructions: 50000000
Number of CPUs: 1
LLC sets: 2048
LLC ways: 16
Off-chip DRAM Size: 4096 MB Channels: 1 Width: 64-bit Data Rate: 3200 MT/s

CPU 0 runs /Users/brandon/Documents/CoursesWi22/CSE240C/Homework1/ChampSim/ipc1_public/client_006.champsimtrace.xz
CPU 0 L1I next line prefetcher
CPU 0 L1D next line prefetcher
Heartbeat CPU 0 instructions: 10000003 cycles: 4267466 heartbeat IPC: 2.34331 cumulative IPC: 2.34331 (Simulation time: 0 hr 1 min 43 sec) 
Heartbeat CPU 0 instructions: 20000000 cycles: 8307409 heartbeat IPC: 2.47528 cumulative IPC: 2.40749 (Simulation time: 0 hr 3 min 42 sec) 
Heartbeat CPU 0 instructions: 30000003 cycles: 11370429 heartbeat IPC: 3.26475 cumulative IPC: 2.63842 (Simulation time: 0 hr 5 min 15 sec) 
Heartbeat CPU 0 instructions: 40000000 cycles: 14715155 heartbeat IPC: 2.98978 cumulative IPC: 2.71829 (Simulation time: 0 hr 7 min 1 sec) 
Heartbeat CPU 0 instructions: 50000003 cycles: 18819950 heartbeat IPC: 2.43618 cumulative IPC: 2.65676 (Simulation time: 0 hr 9 min 0 sec) 

Warmup complete CPU 0 instructions: 50000003 cycles: 18819950 (Simulation time: 0 hr 9 min 0 sec) 

Heartbeat CPU 0 instructions: 60000001 cycles: 26674400 heartbeat IPC: 1.27316 cumulative IPC: 1.27316 (Simulation time: 0 hr 10 min 30 sec) 
Heartbeat CPU 0 instructions: 70000003 cycles: 36383814 heartbeat IPC: 1.02993 cumulative IPC: 1.1387 (Simulation time: 0 hr 12 min 20 sec) 
Heartbeat CPU 0 instructions: 80000002 cycles: 44717091 heartbeat IPC: 1.20001 cumulative IPC: 1.15843 (Simulation time: 0 hr 13 min 50 sec) 
Heartbeat CPU 0 instructions: 90000003 cycles: 52546594 heartbeat IPC: 1.27722 cumulative IPC: 1.18601 (Simulation time: 0 hr 15 min 12 sec) 
Heartbeat CPU 0 instructions: 100000001 cycles: 60720242 heartbeat IPC: 1.22344 cumulative IPC: 1.19331 (Simulation time: 0 hr 16 min 39 sec) 
Finished CPU 0 instructions: 50000002 cycles: 41900293 cumulative IPC: 1.19331 (Simulation time: 0 hr 16 min 39 sec) 

ChampSim completed all CPUs

Region of Interest Statistics

CPU 0 cumulative IPC: 1.19331 instructions: 50000002 cycles: 41900293
L1D TOTAL     ACCESS:   16581389  HIT:   15854215  MISS:     727174
L1D LOAD      ACCESS:    6360740  HIT:    5953553  MISS:     407187
L1D RFO       ACCESS:    4332480  HIT:    4289841  MISS:      42639
L1D PREFETCH  ACCESS:    5888169  HIT:    5610821  MISS:     277348
L1D WRITEBACK ACCESS:          0  HIT:          0  MISS:          0
L1D PREFETCH  REQUESTED:    6402696  ISSUED:    6221679  USEFUL:     116371  USELESS:     160851
L1D AVERAGE MISS LATENCY: 81.9181 cycles
L1I TOTAL     ACCESS:   10553847  HIT:    9514305  MISS:    1039542
L1I LOAD      ACCESS:    8466105  HIT:    8450464  MISS:      15641
L1I RFO       ACCESS:          0  HIT:          0  MISS:          0
L1I PREFETCH  ACCESS:    2087742  HIT:    1063841  MISS:    1023901
L1I WRITEBACK ACCESS:          0  HIT:          0  MISS:          0
L1I PREFETCH  REQUESTED:    2117244  ISSUED:    2117231  USEFUL:     774967  USELESS:     248875
L1I AVERAGE MISS LATENCY: 22.2427 cycles
L2C TOTAL     ACCESS:    2426219  HIT:    1874255  MISS:     551964
L2C LOAD      ACCESS:     348373  HIT:     110300  MISS:     238073
L2C RFO       ACCESS:      42362  HIT:      12415  MISS:      29947
L2C PREFETCH  ACCESS:    1859498  HIT:    1576294  MISS:     283204
L2C WRITEBACK ACCESS:     175986  HIT:     175246  MISS:        740
L2C PREFETCH  REQUESTED:    3015725  ISSUED:    2993079  USEFUL:      10932  USELESS:     273133
L2C AVERAGE MISS LATENCY: 116.863 cycles
LLC TOTAL     ACCESS:    1350963  HIT:     963530  MISS:     387433
LLC LOAD      ACCESS:     228624  HIT:     135312  MISS:      93312
LLC RFO       ACCESS:      29947  HIT:       5221  MISS:      24726
LLC PREFETCH  ACCESS:     957897  HIT:     689028  MISS:     268869
LLC WRITEBACK ACCESS:     134495  HIT:     133969  MISS:        526
LLC PREFETCH  REQUESTED:          0  ISSUED:          0  USEFUL:      41085  USELESS:     231545
LLC AVERAGE MISS LATENCY: 199.766 cycles
Major fault: 0 Minor fault: 10527
I-Shadow cache 408 bytes
Touched + WorthPF tables 24576 bytes 
MMA filter 174 bytes 
FNL filter 272 bytes 
TOTAL PREFETCHER STORAGE SIZE: 98134 bytes
CPU 0 L1I next line prefetcher final stats
CPU 0 L1D next line prefetcher final stats

DRAM Statistics
 CHANNEL 0
 RQ ROW_BUFFER_HIT:     102029  ROW_BUFFER_MISS:     284868
 DBUS_CONGESTED:     227091
 WQ ROW_BUFFER_HIT:      21423  ROW_BUFFER_MISS:      92889  FULL:          0

 AVG_CONGESTED_CYCLE: 5

CPU 0 Branch Prediction Accuracy: 98.1683% MPKI: 3.13642 Average ROB Occupancy at Mispredict: 88.1099

Branch types
NOT_BRANCH: 41438057 82.8761%
BRANCH_DIRECT_JUMP: 413829 0.827658%
BRANCH_INDIRECT: 47058 0.094116%
BRANCH_CONDITIONAL: 6843835 13.6877%
BRANCH_DIRECT_CALL: 536885 1.07377%
BRANCH_INDIRECT_CALL: 90642 0.181284%
BRANCH_RETURN: 629329 1.25866%
BRANCH_OTHER: 0 0%

