Initialize SIGNATURE TABLE
ST_SET: 1
ST_WAY: 256
ST_TAG_BIT: 16
ST_TAG_MASK: ffff

Initialize PATTERN TABLE
PT_SET: 512
PT_WAY: 4
SIG_DELTA_BIT: 7
C_SIG_BIT: 4
C_DELTA_BIT: 4

Initialize PREFETCH FILTER
FILTER_SET: 1024

*** ChampSim Multicore Out-of-Order Simulator ***

Warmup Instructions: 50000000
Simulation Instructions: 50000000
Number of CPUs: 1
LLC sets: 2048
LLC ways: 16
Off-chip DRAM Size: 4096 MB Channels: 1 Width: 64-bit Data Rate: 3200 MT/s

CPU 0 runs /Users/brandon/Documents/CoursesWi22/CSE240C/Homework1/ChampSim/ipc1_public/client_008.champsimtrace.xz
CPU 0 L1I next line prefetcher
CPU 0 L1D next line prefetcher
Heartbeat CPU 0 instructions: 10000001 cycles: 3751704 heartbeat IPC: 2.66546 cumulative IPC: 2.66546 (Simulation time: 0 hr 1 min 44 sec) 
Heartbeat CPU 0 instructions: 20000001 cycles: 7524835 heartbeat IPC: 2.65032 cumulative IPC: 2.65787 (Simulation time: 0 hr 3 min 49 sec) 
Heartbeat CPU 0 instructions: 30000000 cycles: 11249322 heartbeat IPC: 2.68493 cumulative IPC: 2.66683 (Simulation time: 0 hr 5 min 46 sec) 
Heartbeat CPU 0 instructions: 40000002 cycles: 15040892 heartbeat IPC: 2.63743 cumulative IPC: 2.65942 (Simulation time: 0 hr 7 min 55 sec) 
Heartbeat CPU 0 instructions: 50000003 cycles: 18830231 heartbeat IPC: 2.63898 cumulative IPC: 2.6553 (Simulation time: 0 hr 10 min 0 sec) 

Warmup complete CPU 0 instructions: 50000003 cycles: 18830231 (Simulation time: 0 hr 10 min 0 sec) 

Heartbeat CPU 0 instructions: 60000000 cycles: 26969510 heartbeat IPC: 1.22861 cumulative IPC: 1.22861 (Simulation time: 0 hr 12 min 13 sec) 
Heartbeat CPU 0 instructions: 70000000 cycles: 34883681 heartbeat IPC: 1.26356 cumulative IPC: 1.24584 (Simulation time: 0 hr 14 min 26 sec) 
Heartbeat CPU 0 instructions: 80000001 cycles: 43924838 heartbeat IPC: 1.10605 cumulative IPC: 1.19548 (Simulation time: 0 hr 16 min 8 sec) 
Heartbeat CPU 0 instructions: 90000001 cycles: 51301089 heartbeat IPC: 1.3557 cumulative IPC: 1.23187 (Simulation time: 0 hr 17 min 26 sec) 
Heartbeat CPU 0 instructions: 100000001 cycles: 59332514 heartbeat IPC: 1.24511 cumulative IPC: 1.2345 (Simulation time: 0 hr 18 min 11 sec) 
Finished CPU 0 instructions: 50000002 cycles: 40502284 cumulative IPC: 1.2345 (Simulation time: 0 hr 18 min 11 sec) 

ChampSim completed all CPUs

Region of Interest Statistics

CPU 0 cumulative IPC: 1.2345 instructions: 50000002 cycles: 40502284
L1D TOTAL     ACCESS:   20486094  HIT:   18857586  MISS:    1628508
L1D LOAD      ACCESS:    8063856  HIT:    7264302  MISS:     799554
L1D RFO       ACCESS:    4815235  HIT:    4705716  MISS:     109519
L1D PREFETCH  ACCESS:    7607003  HIT:    6887568  MISS:     719435
L1D WRITEBACK ACCESS:          0  HIT:          0  MISS:          0
L1D PREFETCH  REQUESTED:    8132750  ISSUED:    7963924  USEFUL:     199650  USELESS:     519790
L1D AVERAGE MISS LATENCY: 32.7151 cycles
L1I TOTAL     ACCESS:   11446147  HIT:   10386479  MISS:    1059668
L1I LOAD      ACCESS:    9765638  HIT:    9711787  MISS:      53851
L1I RFO       ACCESS:          0  HIT:          0  MISS:          0
L1I PREFETCH  ACCESS:    1680509  HIT:     674692  MISS:    1005817
L1I WRITEBACK ACCESS:          0  HIT:          0  MISS:          0
L1I PREFETCH  REQUESTED:    1713337  ISSUED:    1713330  USEFUL:     735703  USELESS:     270208
L1I AVERAGE MISS LATENCY: 17.7801 cycles
L2C TOTAL     ACCESS:    3772587  HIT:    3319490  MISS:     453097
L2C LOAD      ACCESS:     799798  HIT:     632474  MISS:     167324
L2C RFO       ACCESS:     104323  HIT:      18396  MISS:      85927
L2C PREFETCH  ACCESS:    2686468  HIT:    2487007  MISS:     199461
L2C WRITEBACK ACCESS:     181998  HIT:     181613  MISS:        385
L2C PREFETCH  REQUESTED:    3134930  ISSUED:    3129378  USEFUL:      18609  USELESS:     183178
L2C AVERAGE MISS LATENCY: 76.5706 cycles
LLC TOTAL     ACCESS:    1421163  HIT:    1239125  MISS:     182038
LLC LOAD      ACCESS:     167219  HIT:     145300  MISS:      21919
LLC RFO       ACCESS:      85922  HIT:      16628  MISS:      69294
LLC PREFETCH  ACCESS:    1032335  HIT:     941884  MISS:      90451
LLC WRITEBACK ACCESS:     135687  HIT:     135313  MISS:        374
LLC PREFETCH  REQUESTED:          0  ISSUED:          0  USEFUL:      24844  USELESS:      74215
LLC AVERAGE MISS LATENCY: 167.98 cycles
Major fault: 0 Minor fault: 5306
I-Shadow cache 408 bytes
Touched + WorthPF tables 24576 bytes 
MMA filter 174 bytes 
FNL filter 272 bytes 
TOTAL PREFETCHER STORAGE SIZE: 98134 bytes
CPU 0 L1I next line prefetcher final stats
CPU 0 L1D next line prefetcher final stats

DRAM Statistics
 CHANNEL 0
 RQ ROW_BUFFER_HIT:      52383  ROW_BUFFER_MISS:     129270
 DBUS_CONGESTED:     100403
 WQ ROW_BUFFER_HIT:      24024  ROW_BUFFER_MISS:      65827  FULL:          0

 AVG_CONGESTED_CYCLE: 6

CPU 0 Branch Prediction Accuracy: 98.6482% MPKI: 3.1551 Average ROB Occupancy at Mispredict: 96.6872

Branch types
NOT_BRANCH: 38329598 76.6592%
BRANCH_DIRECT_JUMP: 510116 1.02023%
BRANCH_INDIRECT: 225730 0.45146%
BRANCH_CONDITIONAL: 8366762 16.7335%
BRANCH_DIRECT_CALL: 600748 1.2015%
BRANCH_INDIRECT_CALL: 682990 1.36598%
BRANCH_RETURN: 1283974 2.56795%
BRANCH_OTHER: 0 0%

