Initialize SIGNATURE TABLE
ST_SET: 1
ST_WAY: 256
ST_TAG_BIT: 16
ST_TAG_MASK: ffff

Initialize PATTERN TABLE
PT_SET: 512
PT_WAY: 4
SIG_DELTA_BIT: 7
C_SIG_BIT: 4
C_DELTA_BIT: 4

Initialize PREFETCH FILTER
FILTER_SET: 1024

*** ChampSim Multicore Out-of-Order Simulator ***

Warmup Instructions: 50000000
Simulation Instructions: 50000000
Number of CPUs: 1
LLC sets: 2048
LLC ways: 16
Off-chip DRAM Size: 4096 MB Channels: 1 Width: 64-bit Data Rate: 3200 MT/s

CPU 0 runs /Users/brandon/Documents/CoursesWi22/CSE240C/Homework1/ChampSim/ipc1_public/server_028.champsimtrace.xz
CPU 0 L1I next line prefetcher
CPU 0 L1D next line prefetcher
Heartbeat CPU 0 instructions: 10000001 cycles: 3493166 heartbeat IPC: 2.86273 cumulative IPC: 2.86273 (Simulation time: 0 hr 1 min 46 sec) 
Heartbeat CPU 0 instructions: 20000002 cycles: 6986318 heartbeat IPC: 2.86274 cumulative IPC: 2.86274 (Simulation time: 0 hr 3 min 39 sec) 
Heartbeat CPU 0 instructions: 30000001 cycles: 10478546 heartbeat IPC: 2.8635 cumulative IPC: 2.86299 (Simulation time: 0 hr 5 min 28 sec) 
Heartbeat CPU 0 instructions: 40000002 cycles: 13975889 heartbeat IPC: 2.85931 cumulative IPC: 2.86207 (Simulation time: 0 hr 7 min 14 sec) 
Heartbeat CPU 0 instructions: 50000001 cycles: 17470681 heartbeat IPC: 2.8614 cumulative IPC: 2.86194 (Simulation time: 0 hr 8 min 59 sec) 

Warmup complete CPU 0 instructions: 50000001 cycles: 17470681 (Simulation time: 0 hr 8 min 59 sec) 

Heartbeat CPU 0 instructions: 60000000 cycles: 24969801 heartbeat IPC: 1.33349 cumulative IPC: 1.33349 (Simulation time: 0 hr 10 min 42 sec) 
Heartbeat CPU 0 instructions: 70000000 cycles: 32468858 heartbeat IPC: 1.3335 cumulative IPC: 1.3335 (Simulation time: 0 hr 12 min 32 sec) 
Heartbeat CPU 0 instructions: 80000000 cycles: 39971464 heartbeat IPC: 1.33287 cumulative IPC: 1.33329 (Simulation time: 0 hr 14 min 8 sec) 
*** Reached end of trace for Core: 0 Repeating trace: /Users/brandon/Documents/CoursesWi22/CSE240C/Homework1/ChampSim/ipc1_public/server_028.champsimtrace.xz
Heartbeat CPU 0 instructions: 90000000 cycles: 47442062 heartbeat IPC: 1.33858 cumulative IPC: 1.33461 (Simulation time: 0 hr 15 min 34 sec) 
Heartbeat CPU 0 instructions: 100000003 cycles: 54882230 heartbeat IPC: 1.34406 cumulative IPC: 1.33649 (Simulation time: 0 hr 16 min 57 sec) 
Finished CPU 0 instructions: 50000002 cycles: 37411549 cumulative IPC: 1.33649 (Simulation time: 0 hr 16 min 57 sec) 

ChampSim completed all CPUs

Region of Interest Statistics

CPU 0 cumulative IPC: 1.33649 instructions: 50000002 cycles: 37411549
L1D TOTAL     ACCESS:   19025512  HIT:   16952270  MISS:    2073242
L1D LOAD      ACCESS:    6719031  HIT:    5670858  MISS:    1048173
L1D RFO       ACCESS:    6094676  HIT:    5811035  MISS:     283641
L1D PREFETCH  ACCESS:    6211805  HIT:    5470377  MISS:     741428
L1D WRITEBACK ACCESS:          0  HIT:          0  MISS:          0
L1D PREFETCH  REQUESTED:    6780305  ISSUED:    6670826  USEFUL:     174766  USELESS:     566665
L1D AVERAGE MISS LATENCY: 22.1438 cycles
L1I TOTAL     ACCESS:   14562169  HIT:   10798906  MISS:    3763263
L1I LOAD      ACCESS:    9769714  HIT:    9682110  MISS:      87604
L1I RFO       ACCESS:          0  HIT:          0  MISS:          0
L1I PREFETCH  ACCESS:    4792455  HIT:    1116796  MISS:    3675659
L1I WRITEBACK ACCESS:          0  HIT:          0  MISS:          0
L1I PREFETCH  REQUESTED:    4937361  ISSUED:    4937354  USEFUL:    2888098  USELESS:     787557
L1I AVERAGE MISS LATENCY: 18.5895 cycles
L2C TOTAL     ACCESS:    8078950  HIT:    7202557  MISS:     876393
L2C LOAD      ACCESS:     926873  HIT:     761272  MISS:     165601
L2C RFO       ACCESS:     281427  HIT:     215333  MISS:      66094
L2C PREFETCH  ACCESS:    6265783  HIT:    5624292  MISS:     641491
L2C WRITEBACK ACCESS:     604867  HIT:     601660  MISS:       3207
L2C PREFETCH  REQUESTED:    7994746  ISSUED:    7967484  USEFUL:      12472  USELESS:     628782
L2C AVERAGE MISS LATENCY: 40.1089 cycles
LLC TOTAL     ACCESS:    3024768  HIT:    2950377  MISS:      74391
LLC LOAD      ACCESS:     165531  HIT:     149304  MISS:      16227
LLC RFO       ACCESS:      66019  HIT:      64046  MISS:       1973
LLC PREFETCH  ACCESS:    2669469  HIT:    2613680  MISS:      55789
LLC WRITEBACK ACCESS:     123749  HIT:     123347  MISS:        402
LLC PREFETCH  REQUESTED:          0  ISSUED:          0  USEFUL:       2493  USELESS:      53815
LLC AVERAGE MISS LATENCY: 159.297 cycles
Major fault: 0 Minor fault: 6038
I-Shadow cache 408 bytes
Touched + WorthPF tables 24576 bytes 
MMA filter 174 bytes 
FNL filter 272 bytes 
TOTAL PREFETCHER STORAGE SIZE: 98134 bytes
CPU 0 L1I next line prefetcher final stats
CPU 0 L1D next line prefetcher final stats

DRAM Statistics
 CHANNEL 0
 RQ ROW_BUFFER_HIT:      19779  ROW_BUFFER_MISS:      54210
 DBUS_CONGESTED:      32077
 WQ ROW_BUFFER_HIT:        370  ROW_BUFFER_MISS:       3079  FULL:          0

 AVG_CONGESTED_CYCLE: 5

CPU 0 Branch Prediction Accuracy: 99.7093% MPKI: 0.54708 Average ROB Occupancy at Mispredict: 151.525

Branch types
NOT_BRANCH: 40590918 81.1818%
BRANCH_DIRECT_JUMP: 523494 1.04699%
BRANCH_INDIRECT: 166997 0.333994%
BRANCH_CONDITIONAL: 6365181 12.7304%
BRANCH_DIRECT_CALL: 989493 1.97899%
BRANCH_INDIRECT_CALL: 187203 0.374406%
BRANCH_RETURN: 1176698 2.3534%
BRANCH_OTHER: 0 0%

