Initialize SIGNATURE TABLE
ST_SET: 1
ST_WAY: 256
ST_TAG_BIT: 16
ST_TAG_MASK: ffff

Initialize PATTERN TABLE
PT_SET: 512
PT_WAY: 4
SIG_DELTA_BIT: 7
C_SIG_BIT: 4
C_DELTA_BIT: 4

Initialize PREFETCH FILTER
FILTER_SET: 1024

*** ChampSim Multicore Out-of-Order Simulator ***

Warmup Instructions: 50000000
Simulation Instructions: 50000000
Number of CPUs: 1
LLC sets: 2048
LLC ways: 16
Off-chip DRAM Size: 4096 MB Channels: 1 Width: 64-bit Data Rate: 3200 MT/s

CPU 0 runs /Users/brandon/Documents/CoursesWi22/CSE240C/Homework1/ChampSim/ipc1_public/server_018.champsimtrace.xz
CPU 0 L1I next line prefetcher
CPU 0 L1D next line prefetcher
Heartbeat CPU 0 instructions: 10000003 cycles: 3616254 heartbeat IPC: 2.76529 cumulative IPC: 2.76529 (Simulation time: 0 hr 1 min 43 sec) 
Heartbeat CPU 0 instructions: 20000001 cycles: 7237508 heartbeat IPC: 2.76147 cumulative IPC: 2.76338 (Simulation time: 0 hr 3 min 45 sec) 
Heartbeat CPU 0 instructions: 30000003 cycles: 10712707 heartbeat IPC: 2.87753 cumulative IPC: 2.80041 (Simulation time: 0 hr 5 min 34 sec) 
Heartbeat CPU 0 instructions: 40000000 cycles: 14224374 heartbeat IPC: 2.84765 cumulative IPC: 2.81207 (Simulation time: 0 hr 7 min 36 sec) 
Heartbeat CPU 0 instructions: 50000003 cycles: 17841259 heartbeat IPC: 2.76481 cumulative IPC: 2.80249 (Simulation time: 0 hr 9 min 39 sec) 

Warmup complete CPU 0 instructions: 50000003 cycles: 17841259 (Simulation time: 0 hr 9 min 39 sec) 

Heartbeat CPU 0 instructions: 60000000 cycles: 35243507 heartbeat IPC: 0.574638 cumulative IPC: 0.574638 (Simulation time: 0 hr 12 min 36 sec) 
Heartbeat CPU 0 instructions: 70000001 cycles: 52617122 heartbeat IPC: 0.575585 cumulative IPC: 0.575112 (Simulation time: 0 hr 15 min 22 sec) 
Heartbeat CPU 0 instructions: 80000000 cycles: 69878643 heartbeat IPC: 0.579323 cumulative IPC: 0.576509 (Simulation time: 0 hr 17 min 38 sec) 
Heartbeat CPU 0 instructions: 90000002 cycles: 87173285 heartbeat IPC: 0.578214 cumulative IPC: 0.576934 (Simulation time: 0 hr 18 min 38 sec) 
Heartbeat CPU 0 instructions: 100000001 cycles: 104545368 heartbeat IPC: 0.575636 cumulative IPC: 0.576674 (Simulation time: 0 hr 19 min 18 sec) 
Finished CPU 0 instructions: 50000002 cycles: 86704110 cumulative IPC: 0.576674 (Simulation time: 0 hr 19 min 18 sec) 

ChampSim completed all CPUs

Region of Interest Statistics

CPU 0 cumulative IPC: 0.576674 instructions: 50000002 cycles: 86704110
L1D TOTAL     ACCESS:   18618180  HIT:   16400482  MISS:    2217698
L1D LOAD      ACCESS:    7045522  HIT:    6322930  MISS:     722592
L1D RFO       ACCESS:    5802458  HIT:    4850249  MISS:     952209
L1D PREFETCH  ACCESS:    5770200  HIT:    5227303  MISS:     542897
L1D WRITEBACK ACCESS:          0  HIT:          0  MISS:          0
L1D PREFETCH  REQUESTED:    7086826  ISSUED:    6883526  USEFUL:     203151  USELESS:     339836
L1D AVERAGE MISS LATENCY: 176.115 cycles
L1I TOTAL     ACCESS:   14639126  HIT:   11710881  MISS:    2928245
L1I LOAD      ACCESS:   10101984  HIT:   10070796  MISS:      31188
L1I RFO       ACCESS:          0  HIT:          0  MISS:          0
L1I PREFETCH  ACCESS:    4537142  HIT:    1640085  MISS:    2897057
L1I WRITEBACK ACCESS:          0  HIT:          0  MISS:          0
L1I PREFETCH  REQUESTED:    4673692  ISSUED:    4673690  USEFUL:    2537421  USELESS:     359579
L1I AVERAGE MISS LATENCY: 17.8134 cycles
L2C TOTAL     ACCESS:    7438270  HIT:    5577283  MISS:    1860987
L2C LOAD      ACCESS:     511856  HIT:     247579  MISS:     264277
L2C RFO       ACCESS:     951747  HIT:      21146  MISS:     930601
L2C PREFETCH  ACCESS:    4804643  HIT:    4142259  MISS:     662384
L2C WRITEBACK ACCESS:    1170024  HIT:    1166299  MISS:       3725
L2C PREFETCH  REQUESTED:    4988562  ISSUED:    4981205  USEFUL:      23284  USELESS:     640043
L2C AVERAGE MISS LATENCY: 214.169 cycles
LLC TOTAL     ACCESS:    4226162  HIT:    2753621  MISS:    1472541
LLC LOAD      ACCESS:     264159  HIT:     164145  MISS:     100014
LLC RFO       ACCESS:     930573  HIT:     134069  MISS:     796504
LLC PREFETCH  ACCESS:    1929609  HIT:    1355707  MISS:     573902
LLC WRITEBACK ACCESS:    1101821  HIT:    1099700  MISS:       2121
LLC PREFETCH  REQUESTED:          0  ISSUED:          0  USEFUL:      33235  USELESS:     540813
LLC AVERAGE MISS LATENCY: 281.094 cycles
Major fault: 0 Minor fault: 22443
I-Shadow cache 408 bytes
Touched + WorthPF tables 24576 bytes 
MMA filter 174 bytes 
FNL filter 272 bytes 
TOTAL PREFETCHER STORAGE SIZE: 98134 bytes
CPU 0 L1I next line prefetcher final stats
CPU 0 L1D next line prefetcher final stats

DRAM Statistics
 CHANNEL 0
 RQ ROW_BUFFER_HIT:     418969  ROW_BUFFER_MISS:    1051085
 DBUS_CONGESTED:    1474548
 WQ ROW_BUFFER_HIT:     248973  ROW_BUFFER_MISS:     652345  FULL:          0

 AVG_CONGESTED_CYCLE: 6

CPU 0 Branch Prediction Accuracy: 99.7114% MPKI: 0.47678 Average ROB Occupancy at Mispredict: 211.517

Branch types
NOT_BRANCH: 41741008 83.482%
BRANCH_DIRECT_JUMP: 458652 0.917304%
BRANCH_INDIRECT: 48282 0.096564%
BRANCH_CONDITIONAL: 5930881 11.8618%
BRANCH_DIRECT_CALL: 744230 1.48846%
BRANCH_INDIRECT_CALL: 166336 0.332672%
BRANCH_RETURN: 910589 1.82118%
BRANCH_OTHER: 0 0%

