Initialize SIGNATURE TABLE
ST_SET: 1
ST_WAY: 256
ST_TAG_BIT: 16
ST_TAG_MASK: ffff

Initialize PATTERN TABLE
PT_SET: 512
PT_WAY: 4
SIG_DELTA_BIT: 7
C_SIG_BIT: 4
C_DELTA_BIT: 4

Initialize PREFETCH FILTER
FILTER_SET: 1024

*** ChampSim Multicore Out-of-Order Simulator ***

Warmup Instructions: 50000000
Simulation Instructions: 50000000
Number of CPUs: 1
LLC sets: 2048
LLC ways: 16
Off-chip DRAM Size: 4096 MB Channels: 1 Width: 64-bit Data Rate: 3200 MT/s

CPU 0 runs /Users/brandon/Documents/CoursesWi22/CSE240C/Homework1/ChampSim/ipc1_public/server_031.champsimtrace.xz
CPU 0 L1I next line prefetcher
CPU 0 L1D next line prefetcher
Heartbeat CPU 0 instructions: 10000003 cycles: 3520719 heartbeat IPC: 2.84033 cumulative IPC: 2.84033 (Simulation time: 0 hr 1 min 48 sec) 
Heartbeat CPU 0 instructions: 20000002 cycles: 7041322 heartbeat IPC: 2.84042 cumulative IPC: 2.84038 (Simulation time: 0 hr 3 min 43 sec) 
Heartbeat CPU 0 instructions: 30000002 cycles: 10561961 heartbeat IPC: 2.84039 cumulative IPC: 2.84038 (Simulation time: 0 hr 5 min 33 sec) 
Heartbeat CPU 0 instructions: 40000003 cycles: 14079056 heartbeat IPC: 2.84326 cumulative IPC: 2.8411 (Simulation time: 0 hr 7 min 20 sec) 
Heartbeat CPU 0 instructions: 50000001 cycles: 17599074 heartbeat IPC: 2.84089 cumulative IPC: 2.84106 (Simulation time: 0 hr 9 min 6 sec) 

Warmup complete CPU 0 instructions: 50000001 cycles: 17599074 (Simulation time: 0 hr 9 min 6 sec) 

Heartbeat CPU 0 instructions: 60000001 cycles: 25153888 heartbeat IPC: 1.32366 cumulative IPC: 1.32366 (Simulation time: 0 hr 10 min 52 sec) 
Heartbeat CPU 0 instructions: 70000002 cycles: 32778916 heartbeat IPC: 1.31147 cumulative IPC: 1.31754 (Simulation time: 0 hr 12 min 42 sec) 
*** Reached end of trace for Core: 0 Repeating trace: /Users/brandon/Documents/CoursesWi22/CSE240C/Homework1/ChampSim/ipc1_public/server_031.champsimtrace.xz
Heartbeat CPU 0 instructions: 80000000 cycles: 40252836 heartbeat IPC: 1.33799 cumulative IPC: 1.32428 (Simulation time: 0 hr 14 min 19 sec) 
Heartbeat CPU 0 instructions: 90000001 cycles: 47782797 heartbeat IPC: 1.32803 cumulative IPC: 1.32522 (Simulation time: 0 hr 15 min 46 sec) 
Heartbeat CPU 0 instructions: 100000000 cycles: 55265959 heartbeat IPC: 1.33633 cumulative IPC: 1.32743 (Simulation time: 0 hr 17 min 4 sec) 
Finished CPU 0 instructions: 50000000 cycles: 37666887 cumulative IPC: 1.32743 (Simulation time: 0 hr 17 min 4 sec) 

ChampSim completed all CPUs

Region of Interest Statistics

CPU 0 cumulative IPC: 1.32743 instructions: 50000000 cycles: 37666887
L1D TOTAL     ACCESS:   19493509  HIT:   17589272  MISS:    1904237
L1D LOAD      ACCESS:    6762072  HIT:    5887652  MISS:     874420
L1D RFO       ACCESS:    6313803  HIT:    6022430  MISS:     291373
L1D PREFETCH  ACCESS:    6417634  HIT:    5679190  MISS:     738444
L1D WRITEBACK ACCESS:          0  HIT:          0  MISS:          0
L1D PREFETCH  REQUESTED:    6826763  ISSUED:    6710509  USEFUL:     172756  USELESS:     565693
L1D AVERAGE MISS LATENCY: 23.9286 cycles
L1I TOTAL     ACCESS:   14631639  HIT:   10785582  MISS:    3846057
L1I LOAD      ACCESS:    9716121  HIT:    9634895  MISS:      81226
L1I RFO       ACCESS:          0  HIT:          0  MISS:          0
L1I PREFETCH  ACCESS:    4915518  HIT:    1150687  MISS:    3764831
L1I WRITEBACK ACCESS:          0  HIT:          0  MISS:          0
L1I PREFETCH  REQUESTED:    5049563  ISSUED:    5049563  USEFUL:    3013891  USELESS:     750921
L1I AVERAGE MISS LATENCY: 18.2269 cycles
L2C TOTAL     ACCESS:    7982177  HIT:    7180137  MISS:     802040
L2C LOAD      ACCESS:     852137  HIT:     695314  MISS:     156823
L2C RFO       ACCESS:     289458  HIT:     220136  MISS:      69322
L2C PREFETCH  ACCESS:    6223708  HIT:    5653013  MISS:     570695
L2C WRITEBACK ACCESS:     616874  HIT:     611674  MISS:       5200
L2C PREFETCH  REQUESTED:    8070982  ISSUED:    8050169  USEFUL:      10711  USELESS:     559344
L2C AVERAGE MISS LATENCY: 42.4011 cycles
LLC TOTAL     ACCESS:    2820470  HIT:    2737873  MISS:      82597
LLC LOAD      ACCESS:     156694  HIT:     138027  MISS:      18667
LLC RFO       ACCESS:      69295  HIT:      65126  MISS:       4169
LLC PREFETCH  ACCESS:    2462911  HIT:    2403714  MISS:      59197
LLC WRITEBACK ACCESS:     131570  HIT:     131006  MISS:        564
LLC PREFETCH  REQUESTED:          0  ISSUED:          0  USEFUL:       2880  USELESS:      56489
LLC AVERAGE MISS LATENCY: 159.44 cycles
Major fault: 0 Minor fault: 6042
I-Shadow cache 408 bytes
Touched + WorthPF tables 24576 bytes 
MMA filter 174 bytes 
FNL filter 272 bytes 
TOTAL PREFETCHER STORAGE SIZE: 98134 bytes
CPU 0 L1I next line prefetcher final stats
CPU 0 L1D next line prefetcher final stats

DRAM Statistics
 CHANNEL 0
 RQ ROW_BUFFER_HIT:      22498  ROW_BUFFER_MISS:      59524
 DBUS_CONGESTED:      36553
 WQ ROW_BUFFER_HIT:        767  ROW_BUFFER_MISS:       5037  FULL:          0

 AVG_CONGESTED_CYCLE: 5

CPU 0 Branch Prediction Accuracy: 99.6894% MPKI: 0.58048 Average ROB Occupancy at Mispredict: 144.618

Branch types
NOT_BRANCH: 40655648 81.3113%
BRANCH_DIRECT_JUMP: 546483 1.09297%
BRANCH_INDIRECT: 172433 0.344866%
BRANCH_CONDITIONAL: 6207591 12.4152%
BRANCH_DIRECT_CALL: 1018497 2.03699%
BRANCH_INDIRECT_CALL: 190373 0.380746%
BRANCH_RETURN: 1208855 2.41771%
BRANCH_OTHER: 0 0%

