Initialize SIGNATURE TABLE
ST_SET: 1
ST_WAY: 256
ST_TAG_BIT: 16
ST_TAG_MASK: ffff

Initialize PATTERN TABLE
PT_SET: 512
PT_WAY: 4
SIG_DELTA_BIT: 7
C_SIG_BIT: 4
C_DELTA_BIT: 4

Initialize PREFETCH FILTER
FILTER_SET: 1024

*** ChampSim Multicore Out-of-Order Simulator ***

Warmup Instructions: 50000000
Simulation Instructions: 50000000
Number of CPUs: 1
LLC sets: 2048
LLC ways: 16
Off-chip DRAM Size: 4096 MB Channels: 1 Width: 64-bit Data Rate: 3200 MT/s

CPU 0 runs /Users/brandon/Documents/CoursesWi22/CSE240C/Homework1/ChampSim/ipc1_public/server_019.champsimtrace.xz
CPU 0 L1I next line prefetcher
CPU 0 L1D next line prefetcher
Heartbeat CPU 0 instructions: 10000002 cycles: 3622751 heartbeat IPC: 2.76033 cumulative IPC: 2.76033 (Simulation time: 0 hr 1 min 43 sec) 
Heartbeat CPU 0 instructions: 20000003 cycles: 7246589 heartbeat IPC: 2.75951 cumulative IPC: 2.75992 (Simulation time: 0 hr 3 min 45 sec) 
Heartbeat CPU 0 instructions: 30000002 cycles: 10869731 heartbeat IPC: 2.76004 cumulative IPC: 2.75996 (Simulation time: 0 hr 5 min 41 sec) 
Heartbeat CPU 0 instructions: 40000002 cycles: 14504989 heartbeat IPC: 2.75084 cumulative IPC: 2.75767 (Simulation time: 0 hr 7 min 47 sec) 
Heartbeat CPU 0 instructions: 50000001 cycles: 18128574 heartbeat IPC: 2.7597 cumulative IPC: 2.75808 (Simulation time: 0 hr 9 min 50 sec) 

Warmup complete CPU 0 instructions: 50000001 cycles: 18128574 (Simulation time: 0 hr 9 min 50 sec) 

Heartbeat CPU 0 instructions: 60000000 cycles: 37741092 heartbeat IPC: 0.509878 cumulative IPC: 0.509878 (Simulation time: 0 hr 12 min 56 sec) 
Heartbeat CPU 0 instructions: 70000002 cycles: 61121452 heartbeat IPC: 0.427709 cumulative IPC: 0.465193 (Simulation time: 0 hr 15 min 37 sec) 
Heartbeat CPU 0 instructions: 80000001 cycles: 81464091 heartbeat IPC: 0.491578 cumulative IPC: 0.473668 (Simulation time: 0 hr 17 min 44 sec) 
Heartbeat CPU 0 instructions: 90000002 cycles: 98759184 heartbeat IPC: 0.578199 cumulative IPC: 0.49609 (Simulation time: 0 hr 18 min 41 sec) 
Heartbeat CPU 0 instructions: 100000002 cycles: 116055473 heartbeat IPC: 0.578159 cumulative IPC: 0.510585 (Simulation time: 0 hr 19 min 20 sec) 
Finished CPU 0 instructions: 50000001 cycles: 97926899 cumulative IPC: 0.510585 (Simulation time: 0 hr 19 min 20 sec) 

ChampSim completed all CPUs

Region of Interest Statistics

CPU 0 cumulative IPC: 0.510585 instructions: 50000001 cycles: 97926899
L1D TOTAL     ACCESS:   18304421  HIT:   16080750  MISS:    2223671
L1D LOAD      ACCESS:    6978146  HIT:    6228520  MISS:     749626
L1D RFO       ACCESS:    5506358  HIT:    4604441  MISS:     901917
L1D PREFETCH  ACCESS:    5819917  HIT:    5247789  MISS:     572128
L1D WRITEBACK ACCESS:          0  HIT:          0  MISS:          0
L1D PREFETCH  REQUESTED:    7015289  ISSUED:    6829643  USEFUL:     202858  USELESS:     369179
L1D AVERAGE MISS LATENCY: 187.307 cycles
L1I TOTAL     ACCESS:   13906646  HIT:   11305611  MISS:    2601035
L1I LOAD      ACCESS:    9853261  HIT:    9825701  MISS:      27560
L1I RFO       ACCESS:          0  HIT:          0  MISS:          0
L1I PREFETCH  ACCESS:    4053385  HIT:    1479910  MISS:    2573475
L1I WRITEBACK ACCESS:          0  HIT:          0  MISS:          0
L1I PREFETCH  REQUESTED:    4186446  ISSUED:    4186446  USEFUL:    2264184  USELESS:     309293
L1I AVERAGE MISS LATENCY: 18.4476 cycles
L2C TOTAL     ACCESS:    7023285  HIT:    5131473  MISS:    1891812
L2C LOAD      ACCESS:     564843  HIT:     230342  MISS:     334501
L2C RFO       ACCESS:     901465  HIT:      18182  MISS:     883283
L2C PREFETCH  ACCESS:    4382356  HIT:    3709955  MISS:     672401
L2C WRITEBACK ACCESS:    1174621  HIT:    1172994  MISS:       1627
L2C PREFETCH  REQUESTED:    4781747  ISSUED:    4774710  USEFUL:      22688  USELESS:     648291
L2C AVERAGE MISS LATENCY: 222.725 cycles
LLC TOTAL     ACCESS:    4274904  HIT:    2676072  MISS:    1598832
LLC LOAD      ACCESS:     334411  HIT:     169632  MISS:     164779
LLC RFO       ACCESS:     883232  HIT:     114539  MISS:     768693
LLC PREFETCH  ACCESS:    1946580  HIT:    1283060  MISS:     663520
LLC WRITEBACK ACCESS:    1110681  HIT:    1108841  MISS:       1840
LLC PREFETCH  REQUESTED:          0  ISSUED:          0  USEFUL:      51663  USELESS:     610891
LLC AVERAGE MISS LATENCY: 279.057 cycles
Major fault: 0 Minor fault: 25692
I-Shadow cache 408 bytes
Touched + WorthPF tables 24576 bytes 
MMA filter 174 bytes 
FNL filter 272 bytes 
TOTAL PREFETCHER STORAGE SIZE: 98134 bytes
CPU 0 L1I next line prefetcher final stats
CPU 0 L1D next line prefetcher final stats

DRAM Statistics
 CHANNEL 0
 RQ ROW_BUFFER_HIT:     396117  ROW_BUFFER_MISS:    1200675
 DBUS_CONGESTED:    1590205
 WQ ROW_BUFFER_HIT:     254576  ROW_BUFFER_MISS:     681537  FULL:          0

 AVG_CONGESTED_CYCLE: 6

CPU 0 Branch Prediction Accuracy: 99.2186% MPKI: 1.32192 Average ROB Occupancy at Mispredict: 179.078

Branch types
NOT_BRANCH: 41540785 83.0816%
BRANCH_DIRECT_JUMP: 462384 0.924768%
BRANCH_INDIRECT: 45460 0.09092%
BRANCH_CONDITIONAL: 6209281 12.4186%
BRANCH_DIRECT_CALL: 666241 1.33248%
BRANCH_INDIRECT_CALL: 204728 0.409456%
BRANCH_RETURN: 870978 1.74196%
BRANCH_OTHER: 0 0%

