Initialize SIGNATURE TABLE
ST_SET: 1
ST_WAY: 256
ST_TAG_BIT: 16
ST_TAG_MASK: ffff

Initialize PATTERN TABLE
PT_SET: 512
PT_WAY: 4
SIG_DELTA_BIT: 7
C_SIG_BIT: 4
C_DELTA_BIT: 4

Initialize PREFETCH FILTER
FILTER_SET: 1024

*** ChampSim Multicore Out-of-Order Simulator ***

Warmup Instructions: 50000000
Simulation Instructions: 50000000
Number of CPUs: 1
LLC sets: 2048
LLC ways: 16
Off-chip DRAM Size: 4096 MB Channels: 1 Width: 64-bit Data Rate: 3200 MT/s

CPU 0 runs /Users/brandon/Documents/CoursesWi22/CSE240C/Homework1/ChampSim/ipc1_public/server_002.champsimtrace.xz
CPU 0 L1I next line prefetcher
CPU 0 L1D next line prefetcher
Heartbeat CPU 0 instructions: 10000000 cycles: 3581219 heartbeat IPC: 2.79235 cumulative IPC: 2.79235 (Simulation time: 0 hr 1 min 35 sec) 
Heartbeat CPU 0 instructions: 20000002 cycles: 7169966 heartbeat IPC: 2.78649 cumulative IPC: 2.78941 (Simulation time: 0 hr 3 min 29 sec) 
Heartbeat CPU 0 instructions: 30000000 cycles: 10710694 heartbeat IPC: 2.82428 cumulative IPC: 2.80094 (Simulation time: 0 hr 5 min 21 sec) 
Heartbeat CPU 0 instructions: 40000000 cycles: 14260939 heartbeat IPC: 2.81671 cumulative IPC: 2.80486 (Simulation time: 0 hr 7 min 20 sec) 
Heartbeat CPU 0 instructions: 50000001 cycles: 17808710 heartbeat IPC: 2.81867 cumulative IPC: 2.80762 (Simulation time: 0 hr 9 min 15 sec) 

Warmup complete CPU 0 instructions: 50000001 cycles: 17808710 (Simulation time: 0 hr 9 min 15 sec) 

Heartbeat CPU 0 instructions: 60000000 cycles: 24251828 heartbeat IPC: 1.55204 cumulative IPC: 1.55204 (Simulation time: 0 hr 11 min 22 sec) 
Heartbeat CPU 0 instructions: 70000003 cycles: 30686779 heartbeat IPC: 1.55401 cumulative IPC: 1.55303 (Simulation time: 0 hr 13 min 23 sec) 
Heartbeat CPU 0 instructions: 80000003 cycles: 37123742 heartbeat IPC: 1.55353 cumulative IPC: 1.55319 (Simulation time: 0 hr 15 min 21 sec) 
Heartbeat CPU 0 instructions: 90000002 cycles: 43558517 heartbeat IPC: 1.55406 cumulative IPC: 1.55341 (Simulation time: 0 hr 17 min 12 sec) 
Heartbeat CPU 0 instructions: 100000003 cycles: 49992153 heartbeat IPC: 1.55433 cumulative IPC: 1.55359 (Simulation time: 0 hr 18 min 9 sec) 
Finished CPU 0 instructions: 50000002 cycles: 32183443 cumulative IPC: 1.55359 (Simulation time: 0 hr 18 min 9 sec) 

ChampSim completed all CPUs

Region of Interest Statistics

CPU 0 cumulative IPC: 1.55359 instructions: 50000002 cycles: 32183443
L1D TOTAL     ACCESS:   21526149  HIT:   21525340  MISS:        809
L1D LOAD      ACCESS:    6602776  HIT:    6602400  MISS:        376
L1D RFO       ACCESS:    8433017  HIT:    8432903  MISS:        114
L1D PREFETCH  ACCESS:    6490356  HIT:    6490037  MISS:        319
L1D WRITEBACK ACCESS:          0  HIT:          0  MISS:          0
L1D PREFETCH  REQUESTED:    6602830  ISSUED:    6497717  USEFUL:         90  USELESS:        230
L1D AVERAGE MISS LATENCY: 36.5303 cycles
L1I TOTAL     ACCESS:   14957750  HIT:   13948677  MISS:    1009073
L1I LOAD      ACCESS:    9837636  HIT:    9803126  MISS:      34510
L1I RFO       ACCESS:          0  HIT:          0  MISS:          0
L1I PREFETCH  ACCESS:    5120114  HIT:    4145551  MISS:     974563
L1I WRITEBACK ACCESS:          0  HIT:          0  MISS:          0
L1I PREFETCH  REQUESTED:    5234125  ISSUED:    5234125  USEFUL:     864424  USELESS:     110133
L1I AVERAGE MISS LATENCY: 14.037 cycles
L2C TOTAL     ACCESS:    1244296  HIT:    1243970  MISS:        326
L2C LOAD      ACCESS:      16602  HIT:      16519  MISS:         83
L2C RFO       ACCESS:        113  HIT:        107  MISS:          6
L2C PREFETCH  ACCESS:    1227245  HIT:    1227008  MISS:        237
L2C WRITEBACK ACCESS:        336  HIT:        336  MISS:          0
L2C PREFETCH  REQUESTED:     605309  ISSUED:     605293  USEFUL:        106  USELESS:        143
L2C AVERAGE MISS LATENCY: 144.598 cycles
LLC TOTAL     ACCESS:     203714  HIT:     202864  MISS:        850
LLC LOAD      ACCESS:         83  HIT:         64  MISS:         19
LLC RFO       ACCESS:          6  HIT:          4  MISS:          2
LLC PREFETCH  ACCESS:     203536  HIT:     202709  MISS:        827
LLC WRITEBACK ACCESS:         89  HIT:         87  MISS:          2
LLC PREFETCH  REQUESTED:          0  ISSUED:          0  USEFUL:         11  USELESS:        185
LLC AVERAGE MISS LATENCY: 404.353 cycles
Major fault: 0 Minor fault: 1867
I-Shadow cache 408 bytes
Touched + WorthPF tables 24576 bytes 
MMA filter 174 bytes 
FNL filter 272 bytes 
TOTAL PREFETCHER STORAGE SIZE: 98134 bytes
CPU 0 L1I next line prefetcher final stats
CPU 0 L1D next line prefetcher final stats

DRAM Statistics
 CHANNEL 0
 RQ ROW_BUFFER_HIT:        160  ROW_BUFFER_MISS:        688
 DBUS_CONGESTED:        639
 WQ ROW_BUFFER_HIT:        108  ROW_BUFFER_MISS:        486  FULL:          0

 AVG_CONGESTED_CYCLE: 6

CPU 0 Branch Prediction Accuracy: 99.8789% MPKI: 0.20388 Average ROB Occupancy at Mispredict: 282.107

Branch types
NOT_BRANCH: 41580695 83.1614%
BRANCH_DIRECT_JUMP: 461630 0.92326%
BRANCH_INDIRECT: 0 0%
BRANCH_CONDITIONAL: 5376437 10.7529%
BRANCH_DIRECT_CALL: 1175775 2.35155%
BRANCH_INDIRECT_CALL: 114840 0.22968%
BRANCH_RETURN: 1290625 2.58125%
BRANCH_OTHER: 0 0%

