Initialize SIGNATURE TABLE
ST_SET: 1
ST_WAY: 256
ST_TAG_BIT: 16
ST_TAG_MASK: ffff

Initialize PATTERN TABLE
PT_SET: 512
PT_WAY: 4
SIG_DELTA_BIT: 7
C_SIG_BIT: 4
C_DELTA_BIT: 4

Initialize PREFETCH FILTER
FILTER_SET: 1024

*** ChampSim Multicore Out-of-Order Simulator ***

Warmup Instructions: 50000000
Simulation Instructions: 50000000
Number of CPUs: 1
LLC sets: 2048
LLC ways: 16
Off-chip DRAM Size: 4096 MB Channels: 1 Width: 64-bit Data Rate: 3200 MT/s

CPU 0 runs /Users/brandon/Documents/CoursesWi22/CSE240C/Homework1/ChampSim/ipc1_public/server_003.champsimtrace.xz
CPU 0 L1I next line prefetcher
CPU 0 L1D next line prefetcher
Heartbeat CPU 0 instructions: 10000002 cycles: 3218017 heartbeat IPC: 3.1075 cumulative IPC: 3.1075 (Simulation time: 0 hr 1 min 32 sec) 
Heartbeat CPU 0 instructions: 20000000 cycles: 6532779 heartbeat IPC: 3.01681 cumulative IPC: 3.06148 (Simulation time: 0 hr 3 min 21 sec) 
Heartbeat CPU 0 instructions: 30000000 cycles: 9737610 heartbeat IPC: 3.12029 cumulative IPC: 3.08084 (Simulation time: 0 hr 5 min 10 sec) 
Heartbeat CPU 0 instructions: 40000001 cycles: 13150133 heartbeat IPC: 2.93038 cumulative IPC: 3.04179 (Simulation time: 0 hr 7 min 10 sec) 
Heartbeat CPU 0 instructions: 50000003 cycles: 16868704 heartbeat IPC: 2.68921 cumulative IPC: 2.96407 (Simulation time: 0 hr 9 min 10 sec) 

Warmup complete CPU 0 instructions: 50000003 cycles: 16868704 (Simulation time: 0 hr 9 min 10 sec) 

Heartbeat CPU 0 instructions: 60000000 cycles: 25716925 heartbeat IPC: 1.13017 cumulative IPC: 1.13017 (Simulation time: 0 hr 10 min 51 sec) 
Heartbeat CPU 0 instructions: 70000003 cycles: 34549778 heartbeat IPC: 1.13214 cumulative IPC: 1.13115 (Simulation time: 0 hr 12 min 33 sec) 
Heartbeat CPU 0 instructions: 80000000 cycles: 44434244 heartbeat IPC: 1.01169 cumulative IPC: 1.08832 (Simulation time: 0 hr 14 min 13 sec) 
Heartbeat CPU 0 instructions: 90000001 cycles: 54402499 heartbeat IPC: 1.00318 cumulative IPC: 1.06571 (Simulation time: 0 hr 15 min 53 sec) 
Heartbeat CPU 0 instructions: 100000001 cycles: 64863704 heartbeat IPC: 0.955913 cumulative IPC: 1.04178 (Simulation time: 0 hr 17 min 19 sec) 
Finished CPU 0 instructions: 50000002 cycles: 47995001 cumulative IPC: 1.04178 (Simulation time: 0 hr 17 min 19 sec) 

ChampSim completed all CPUs

Region of Interest Statistics

CPU 0 cumulative IPC: 1.04178 instructions: 50000002 cycles: 47995001
L1D TOTAL     ACCESS:   19979600  HIT:   18838744  MISS:    1140856
L1D LOAD      ACCESS:    7843947  HIT:    7313693  MISS:     530254
L1D RFO       ACCESS:    4552289  HIT:    4434934  MISS:     117355
L1D PREFETCH  ACCESS:    7583364  HIT:    7090117  MISS:     493247
L1D WRITEBACK ACCESS:          0  HIT:          0  MISS:          0
L1D PREFETCH  REQUESTED:    7903551  ISSUED:    7811954  USEFUL:     155004  USELESS:     338202
L1D AVERAGE MISS LATENCY: 54.6452 cycles
L1I TOTAL     ACCESS:   11311519  HIT:   10035994  MISS:    1275525
L1I LOAD      ACCESS:    9290619  HIT:    9152628  MISS:     137991
L1I RFO       ACCESS:          0  HIT:          0  MISS:          0
L1I PREFETCH  ACCESS:    2020900  HIT:     883366  MISS:    1137534
L1I WRITEBACK ACCESS:          0  HIT:          0  MISS:          0
L1I PREFETCH  REQUESTED:    2131761  ISSUED:    2131699  USEFUL:     810671  USELESS:     326844
L1I AVERAGE MISS LATENCY: 38.3993 cycles
L2C TOTAL     ACCESS:    3200512  HIT:    2214724  MISS:     985788
L2C LOAD      ACCESS:     588361  HIT:     344179  MISS:     244182
L2C RFO       ACCESS:     114658  HIT:      40746  MISS:      73912
L2C PREFETCH  ACCESS:    2213221  HIT:    1546321  MISS:     666900
L2C WRITEBACK ACCESS:     284272  HIT:     283478  MISS:        794
L2C PREFETCH  REQUESTED:    2438483  ISSUED:    2437431  USEFUL:      28796  USELESS:     635629
L2C AVERAGE MISS LATENCY: 82.3238 cycles
LLC TOTAL     ACCESS:    1796232  HIT:    1440702  MISS:     355530
LLC LOAD      ACCESS:     244014  HIT:     180927  MISS:      63087
LLC RFO       ACCESS:      73910  HIT:      32511  MISS:      41399
LLC PREFETCH  ACCESS:    1314373  HIT:    1064728  MISS:     249645
LLC WRITEBACK ACCESS:     163935  HIT:     162536  MISS:       1399
LLC PREFETCH  REQUESTED:          0  ISSUED:          0  USEFUL:      26976  USELESS:     212794
LLC AVERAGE MISS LATENCY: 194.548 cycles
Major fault: 0 Minor fault: 7775
I-Shadow cache 408 bytes
Touched + WorthPF tables 24576 bytes 
MMA filter 174 bytes 
FNL filter 272 bytes 
TOTAL PREFETCHER STORAGE SIZE: 98134 bytes
CPU 0 L1I next line prefetcher final stats
CPU 0 L1D next line prefetcher final stats

DRAM Statistics
 CHANNEL 0
 RQ ROW_BUFFER_HIT:      80677  ROW_BUFFER_MISS:     273411
 DBUS_CONGESTED:     183593
 WQ ROW_BUFFER_HIT:      21702  ROW_BUFFER_MISS:      79556  FULL:          0

 AVG_CONGESTED_CYCLE: 5

CPU 0 Branch Prediction Accuracy: 95.439% MPKI: 9.02702 Average ROB Occupancy at Mispredict: 68.3221

Branch types
NOT_BRANCH: 40104088 80.2082%
BRANCH_DIRECT_JUMP: 497928 0.995856%
BRANCH_INDIRECT: 130587 0.261174%
BRANCH_CONDITIONAL: 7219018 14.438%
BRANCH_DIRECT_CALL: 625807 1.25161%
BRANCH_INDIRECT_CALL: 389787 0.779574%
BRANCH_RETURN: 1032747 2.06549%
BRANCH_OTHER: 0 0%

