Initialize SIGNATURE TABLE
ST_SET: 1
ST_WAY: 256
ST_TAG_BIT: 16
ST_TAG_MASK: ffff

Initialize PATTERN TABLE
PT_SET: 512
PT_WAY: 4
SIG_DELTA_BIT: 7
C_SIG_BIT: 4
C_DELTA_BIT: 4

Initialize PREFETCH FILTER
FILTER_SET: 1024

*** ChampSim Multicore Out-of-Order Simulator ***

Warmup Instructions: 50000000
Simulation Instructions: 50000000
Number of CPUs: 1
LLC sets: 2048
LLC ways: 16
Off-chip DRAM Size: 4096 MB Channels: 1 Width: 64-bit Data Rate: 3200 MT/s

CPU 0 runs /Users/brandon/Documents/CoursesWi22/CSE240C/Homework1/ChampSim/ipc1_public/server_015.champsimtrace.xz
CPU 0 L1I next line prefetcher
CPU 0 L1D next line prefetcher
Heartbeat CPU 0 instructions: 10000002 cycles: 3519400 heartbeat IPC: 2.84139 cumulative IPC: 2.84139 (Simulation time: 0 hr 1 min 38 sec) 
Heartbeat CPU 0 instructions: 20000001 cycles: 7106896 heartbeat IPC: 2.78746 cumulative IPC: 2.81417 (Simulation time: 0 hr 3 min 37 sec) 
Heartbeat CPU 0 instructions: 30000001 cycles: 10645844 heartbeat IPC: 2.8257 cumulative IPC: 2.818 (Simulation time: 0 hr 5 min 30 sec) 
Heartbeat CPU 0 instructions: 40000002 cycles: 14193885 heartbeat IPC: 2.81846 cumulative IPC: 2.81812 (Simulation time: 0 hr 7 min 33 sec) 
Heartbeat CPU 0 instructions: 50000002 cycles: 17742145 heartbeat IPC: 2.81828 cumulative IPC: 2.81815 (Simulation time: 0 hr 9 min 33 sec) 

Warmup complete CPU 0 instructions: 50000002 cycles: 17742145 (Simulation time: 0 hr 9 min 33 sec) 

Heartbeat CPU 0 instructions: 60000002 cycles: 24042582 heartbeat IPC: 1.58719 cumulative IPC: 1.58719 (Simulation time: 0 hr 11 min 44 sec) 
Heartbeat CPU 0 instructions: 70000003 cycles: 30352210 heartbeat IPC: 1.58488 cumulative IPC: 1.58603 (Simulation time: 0 hr 13 min 45 sec) 
Heartbeat CPU 0 instructions: 80000000 cycles: 36661712 heartbeat IPC: 1.58491 cumulative IPC: 1.58566 (Simulation time: 0 hr 15 min 46 sec) 
Heartbeat CPU 0 instructions: 90000000 cycles: 42974368 heartbeat IPC: 1.58412 cumulative IPC: 1.58527 (Simulation time: 0 hr 17 min 29 sec) 
Heartbeat CPU 0 instructions: 100000002 cycles: 49284655 heartbeat IPC: 1.58471 cumulative IPC: 1.58516 (Simulation time: 0 hr 18 min 20 sec) 
Finished CPU 0 instructions: 50000000 cycles: 31542510 cumulative IPC: 1.58516 (Simulation time: 0 hr 18 min 20 sec) 

ChampSim completed all CPUs

Region of Interest Statistics

CPU 0 cumulative IPC: 1.58516 instructions: 50000000 cycles: 31542510
L1D TOTAL     ACCESS:   21841552  HIT:   21824785  MISS:      16767
L1D LOAD      ACCESS:    6698053  HIT:    6697523  MISS:        530
L1D RFO       ACCESS:    8561532  HIT:    8561436  MISS:         96
L1D PREFETCH  ACCESS:    6581967  HIT:    6565826  MISS:      16141
L1D WRITEBACK ACCESS:          0  HIT:          0  MISS:          0
L1D PREFETCH  REQUESTED:    6698114  ISSUED:    6586326  USEFUL:         83  USELESS:      16055
L1D AVERAGE MISS LATENCY: 16.3282 cycles
L1I TOTAL     ACCESS:   15664098  HIT:   13087929  MISS:    2576169
L1I LOAD      ACCESS:    9751721  HIT:    9694386  MISS:      57335
L1I RFO       ACCESS:          0  HIT:          0  MISS:          0
L1I PREFETCH  ACCESS:    5912377  HIT:    3393543  MISS:    2518834
L1I WRITEBACK ACCESS:          0  HIT:          0  MISS:          0
L1I PREFETCH  REQUESTED:    6099858  ISSUED:    6099858  USEFUL:    2116006  USELESS:     402815
L1I AVERAGE MISS LATENCY: 14.2066 cycles
L2C TOTAL     ACCESS:    3479580  HIT:    3479256  MISS:        324
L2C LOAD      ACCESS:      25160  HIT:      25089  MISS:         71
L2C RFO       ACCESS:         94  HIT:         91  MISS:          3
L2C PREFETCH  ACCESS:    3453977  HIT:    3453728  MISS:        249
L2C WRITEBACK ACCESS:        349  HIT:        348  MISS:          1
L2C PREFETCH  REQUESTED:    2384328  ISSUED:    2384315  USEFUL:        116  USELESS:        130
L2C AVERAGE MISS LATENCY: 161.003 cycles
LLC TOTAL     ACCESS:     460821  HIT:     459945  MISS:        876
LLC LOAD      ACCESS:         71  HIT:         56  MISS:         15
LLC RFO       ACCESS:          3  HIT:          1  MISS:          2
LLC PREFETCH  ACCESS:     460646  HIT:     459789  MISS:        857
LLC WRITEBACK ACCESS:        101  HIT:         99  MISS:          2
LLC PREFETCH  REQUESTED:          0  ISSUED:          0  USEFUL:          7  USELESS:        154
LLC AVERAGE MISS LATENCY: 462.976 cycles
Major fault: 0 Minor fault: 1888
I-Shadow cache 408 bytes
Touched + WorthPF tables 24576 bytes 
MMA filter 174 bytes 
FNL filter 272 bytes 
TOTAL PREFETCHER STORAGE SIZE: 98134 bytes
CPU 0 L1I next line prefetcher final stats
CPU 0 L1D next line prefetcher final stats

DRAM Statistics
 CHANNEL 0
 RQ ROW_BUFFER_HIT:        182  ROW_BUFFER_MISS:        692
 DBUS_CONGESTED:        602
 WQ ROW_BUFFER_HIT:         90  ROW_BUFFER_MISS:        567  FULL:          0

 AVG_CONGESTED_CYCLE: 6

CPU 0 Branch Prediction Accuracy: 99.9085% MPKI: 0.15428 Average ROB Occupancy at Mispredict: 287.63

Branch types
NOT_BRANCH: 41573130 83.1463%
BRANCH_DIRECT_JUMP: 436254 0.872508%
BRANCH_INDIRECT: 0 0%
BRANCH_CONDITIONAL: 5395897 10.7918%
BRANCH_DIRECT_CALL: 1173391 2.34678%
BRANCH_INDIRECT_CALL: 123911 0.247822%
BRANCH_RETURN: 1297311 2.59462%
BRANCH_OTHER: 0 0%

