Initialize SIGNATURE TABLE
ST_SET: 1
ST_WAY: 256
ST_TAG_BIT: 16
ST_TAG_MASK: ffff

Initialize PATTERN TABLE
PT_SET: 512
PT_WAY: 4
SIG_DELTA_BIT: 7
C_SIG_BIT: 4
C_DELTA_BIT: 4

Initialize PREFETCH FILTER
FILTER_SET: 1024

*** ChampSim Multicore Out-of-Order Simulator ***

Warmup Instructions: 50000000
Simulation Instructions: 50000000
Number of CPUs: 1
LLC sets: 2048
LLC ways: 16
Off-chip DRAM Size: 4096 MB Channels: 1 Width: 64-bit Data Rate: 3200 MT/s

CPU 0 runs /Users/brandon/Documents/CoursesWi22/CSE240C/Homework1/ChampSim/ipc1_public/server_014.champsimtrace.xz
CPU 0 L1I next line prefetcher
CPU 0 L1D next line prefetcher
Heartbeat CPU 0 instructions: 10000003 cycles: 3519533 heartbeat IPC: 2.84129 cumulative IPC: 2.84129 (Simulation time: 0 hr 1 min 37 sec) 
Heartbeat CPU 0 instructions: 20000000 cycles: 7106247 heartbeat IPC: 2.78807 cumulative IPC: 2.81442 (Simulation time: 0 hr 3 min 36 sec) 
Heartbeat CPU 0 instructions: 30000001 cycles: 10647732 heartbeat IPC: 2.82367 cumulative IPC: 2.8175 (Simulation time: 0 hr 5 min 30 sec) 
Heartbeat CPU 0 instructions: 40000003 cycles: 14195954 heartbeat IPC: 2.81831 cumulative IPC: 2.8177 (Simulation time: 0 hr 7 min 32 sec) 
Heartbeat CPU 0 instructions: 50000000 cycles: 17744628 heartbeat IPC: 2.81795 cumulative IPC: 2.81775 (Simulation time: 0 hr 9 min 30 sec) 

Warmup complete CPU 0 instructions: 50000001 cycles: 17744629 (Simulation time: 0 hr 9 min 30 sec) 

Heartbeat CPU 0 instructions: 60000000 cycles: 24032666 heartbeat IPC: 1.59032 cumulative IPC: 1.59032 (Simulation time: 0 hr 11 min 42 sec) 
Heartbeat CPU 0 instructions: 70000003 cycles: 30324838 heartbeat IPC: 1.58928 cumulative IPC: 1.5898 (Simulation time: 0 hr 13 min 43 sec) 
*** Reached end of trace for Core: 0 Repeating trace: /Users/brandon/Documents/CoursesWi22/CSE240C/Homework1/ChampSim/ipc1_public/server_014.champsimtrace.xz
Heartbeat CPU 0 instructions: 80000001 cycles: 36900947 heartbeat IPC: 1.52066 cumulative IPC: 1.56606 (Simulation time: 0 hr 15 min 43 sec) 
Heartbeat CPU 0 instructions: 90000003 cycles: 44481744 heartbeat IPC: 1.31912 cumulative IPC: 1.49605 (Simulation time: 0 hr 17 min 26 sec) 
Heartbeat CPU 0 instructions: 100000001 cycles: 50960663 heartbeat IPC: 1.54347 cumulative IPC: 1.5053 (Simulation time: 0 hr 18 min 18 sec) 
Finished CPU 0 instructions: 50000000 cycles: 33216034 cumulative IPC: 1.5053 (Simulation time: 0 hr 18 min 18 sec) 

ChampSim completed all CPUs

Region of Interest Statistics

CPU 0 cumulative IPC: 1.5053 instructions: 50000000 cycles: 33216034
L1D TOTAL     ACCESS:   21635165  HIT:   21564304  MISS:      70861
L1D LOAD      ACCESS:    6677670  HIT:    6650731  MISS:      26939
L1D RFO       ACCESS:    8412878  HIT:    8380817  MISS:      32061
L1D PREFETCH  ACCESS:    6544617  HIT:    6532756  MISS:      11861
L1D WRITEBACK ACCESS:          0  HIT:          0  MISS:          0
L1D PREFETCH  REQUESTED:    6682242  ISSUED:    6572524  USEFUL:       3303  USELESS:       8558
L1D AVERAGE MISS LATENCY: 222.716 cycles
L1I TOTAL     ACCESS:   15555532  HIT:   13142533  MISS:    2412999
L1I LOAD      ACCESS:    9742262  HIT:    9689274  MISS:      52988
L1I RFO       ACCESS:          0  HIT:          0  MISS:          0
L1I PREFETCH  ACCESS:    5813270  HIT:    3453259  MISS:    2360011
L1I WRITEBACK ACCESS:          0  HIT:          0  MISS:          0
L1I PREFETCH  REQUESTED:    5988361  ISSUED:    5988361  USEFUL:    1985243  USELESS:     374759
L1I AVERAGE MISS LATENCY: 14.9828 cycles
L2C TOTAL     ACCESS:    3337205  HIT:    3265889  MISS:      71316
L2C LOAD      ACCESS:      56438  HIT:      35804  MISS:      20634
L2C RFO       ACCESS:      32017  HIT:       1061  MISS:      30956
L2C PREFETCH  ACCESS:    3210386  HIT:    3190680  MISS:      19706
L2C WRITEBACK ACCESS:      38364  HIT:      38344  MISS:         20
L2C PREFETCH  REQUESTED:    2000001  ISSUED:    1999984  USEFUL:       1538  USELESS:      18282
L2C AVERAGE MISS LATENCY: 253.566 cycles
LLC TOTAL     ACCESS:     452119  HIT:     387136  MISS:      64983
LLC LOAD      ACCESS:      19558  HIT:       5475  MISS:      14083
LLC RFO       ACCESS:      30956  HIT:       5179  MISS:      25777
LLC PREFETCH  ACCESS:     366759  HIT:     341748  MISS:      25011
LLC WRITEBACK ACCESS:      34846  HIT:      34734  MISS:        112
LLC PREFETCH  REQUESTED:          0  ISSUED:          0  USEFUL:       4157  USELESS:      21695
LLC AVERAGE MISS LATENCY: 294.473 cycles
Major fault: 0 Minor fault: 1911
I-Shadow cache 408 bytes
Touched + WorthPF tables 24576 bytes 
MMA filter 174 bytes 
FNL filter 272 bytes 
TOTAL PREFETCHER STORAGE SIZE: 98134 bytes
CPU 0 L1I next line prefetcher final stats
CPU 0 L1D next line prefetcher final stats

DRAM Statistics
 CHANNEL 0
 RQ ROW_BUFFER_HIT:      28373  ROW_BUFFER_MISS:      36490
 DBUS_CONGESTED:      66512
 WQ ROW_BUFFER_HIT:       8596  ROW_BUFFER_MISS:      23429  FULL:          0

 AVG_CONGESTED_CYCLE: 6

CPU 0 Branch Prediction Accuracy: 99.7719% MPKI: 0.38824 Average ROB Occupancy at Mispredict: 151.729

Branch types
NOT_BRANCH: 41489012 82.978%
BRANCH_DIRECT_JUMP: 449417 0.898834%
BRANCH_INDIRECT: 2330 0.00466%
BRANCH_CONDITIONAL: 5470016 10.94%
BRANCH_DIRECT_CALL: 1172187 2.34437%
BRANCH_INDIRECT_CALL: 122383 0.244766%
BRANCH_RETURN: 1294554 2.58911%
BRANCH_OTHER: 0 0%

