Initialize SIGNATURE TABLE
ST_SET: 1
ST_WAY: 256
ST_TAG_BIT: 16
ST_TAG_MASK: ffff

Initialize PATTERN TABLE
PT_SET: 512
PT_WAY: 4
SIG_DELTA_BIT: 7
C_SIG_BIT: 4
C_DELTA_BIT: 4

Initialize PREFETCH FILTER
FILTER_SET: 1024

*** ChampSim Multicore Out-of-Order Simulator ***

Warmup Instructions: 50000000
Simulation Instructions: 50000000
Number of CPUs: 1
LLC sets: 2048
LLC ways: 16
Off-chip DRAM Size: 4096 MB Channels: 1 Width: 64-bit Data Rate: 3200 MT/s

CPU 0 runs /Users/brandon/Documents/CoursesWi22/CSE240C/Homework1/ChampSim/ipc1_public/client_007.champsimtrace.xz
L1I D-JOLT instruction prefetcher has been constructed!
CPU 0 L1D next line prefetcher
Heartbeat CPU 0 instructions: 10000001 cycles: 3642194 heartbeat IPC: 2.7456 cumulative IPC: 2.7456 (Simulation time: 0 hr 1 min 32 sec) 
Heartbeat CPU 0 instructions: 20000003 cycles: 7034292 heartbeat IPC: 2.94803 cumulative IPC: 2.84321 (Simulation time: 0 hr 3 min 15 sec) 
Heartbeat CPU 0 instructions: 30000000 cycles: 10906488 heartbeat IPC: 2.58251 cumulative IPC: 2.75066 (Simulation time: 0 hr 5 min 23 sec) 
Heartbeat CPU 0 instructions: 40000003 cycles: 15066477 heartbeat IPC: 2.40385 cumulative IPC: 2.6549 (Simulation time: 0 hr 7 min 38 sec) 
Heartbeat CPU 0 instructions: 50000002 cycles: 18471772 heartbeat IPC: 2.9366 cumulative IPC: 2.70683 (Simulation time: 0 hr 9 min 40 sec) 

Warmup complete CPU 0 instructions: 50000002 cycles: 18471772 (Simulation time: 0 hr 9 min 40 sec) 

Heartbeat CPU 0 instructions: 60000003 cycles: 25354801 heartbeat IPC: 1.45285 cumulative IPC: 1.45285 (Simulation time: 0 hr 11 min 44 sec) 
Heartbeat CPU 0 instructions: 70000003 cycles: 34224419 heartbeat IPC: 1.12744 cumulative IPC: 1.26963 (Simulation time: 0 hr 13 min 51 sec) 
Heartbeat CPU 0 instructions: 80000002 cycles: 39549722 heartbeat IPC: 1.87783 cumulative IPC: 1.42329 (Simulation time: 0 hr 15 min 8 sec) 
Heartbeat CPU 0 instructions: 90000002 cycles: 47167489 heartbeat IPC: 1.31272 cumulative IPC: 1.39394 (Simulation time: 0 hr 16 min 49 sec) 
Heartbeat CPU 0 instructions: 100000002 cycles: 56099738 heartbeat IPC: 1.11954 cumulative IPC: 1.3288 (Simulation time: 0 hr 18 min 4 sec) 
Finished CPU 0 instructions: 50000000 cycles: 37627966 cumulative IPC: 1.3288 (Simulation time: 0 hr 18 min 4 sec) 

ChampSim completed all CPUs

Region of Interest Statistics

CPU 0 cumulative IPC: 1.3288 instructions: 50000000 cycles: 37627966
L1D TOTAL     ACCESS:   21193982  HIT:   20024854  MISS:    1169128
L1D LOAD      ACCESS:    8367728  HIT:    7828307  MISS:     539421
L1D RFO       ACCESS:    4868217  HIT:    4777171  MISS:      91046
L1D PREFETCH  ACCESS:    7958037  HIT:    7419376  MISS:     538661
L1D WRITEBACK ACCESS:          0  HIT:          0  MISS:          0
L1D PREFETCH  REQUESTED:    8419728  ISSUED:    8176124  USEFUL:     158113  USELESS:     380563
L1D AVERAGE MISS LATENCY: 34.5877 cycles
L1I TOTAL     ACCESS:   13084531  HIT:   11904657  MISS:    1179874
L1I LOAD      ACCESS:    9118116  HIT:    9062881  MISS:      55235
L1I RFO       ACCESS:          0  HIT:          0  MISS:          0
L1I PREFETCH  ACCESS:    3966415  HIT:    2841776  MISS:    1124639
L1I WRITEBACK ACCESS:          0  HIT:          0  MISS:          0
L1I PREFETCH  REQUESTED:    4111955  ISSUED:    4062391  USEFUL:     847531  USELESS:     277150
L1I AVERAGE MISS LATENCY: 16.4553 cycles
L2C TOTAL     ACCESS:    3516116  HIT:    3309217  MISS:     206899
L2C LOAD      ACCESS:     566141  HIT:     495833  MISS:      70308
L2C RFO       ACCESS:      89507  HIT:      47839  MISS:      41668
L2C PREFETCH  ACCESS:    2532800  HIT:    2438104  MISS:      94696
L2C WRITEBACK ACCESS:     327668  HIT:     327441  MISS:        227
L2C PREFETCH  REQUESTED:    2569308  ISSUED:    2560822  USEFUL:       9755  USELESS:      84914
L2C AVERAGE MISS LATENCY: 125.163 cycles
LLC TOTAL     ACCESS:     942794  HIT:     774929  MISS:     167865
LLC LOAD      ACCESS:      70225  HIT:      34945  MISS:      35280
LLC RFO       ACCESS:      41668  HIT:       7202  MISS:      34466
LLC PREFETCH  ACCESS:     756211  HIT:     658386  MISS:      97825
LLC WRITEBACK ACCESS:      74690  HIT:      74396  MISS:        294
LLC PREFETCH  REQUESTED:          0  ISSUED:          0  USEFUL:      18650  USELESS:      80546
LLC AVERAGE MISS LATENCY: 182.804 cycles
Major fault: 0 Minor fault: 4412
CPU 0 L1D next line prefetcher final stats

DRAM Statistics
 CHANNEL 0
 RQ ROW_BUFFER_HIT:      34798  ROW_BUFFER_MISS:     132766
 DBUS_CONGESTED:      93284
 WQ ROW_BUFFER_HIT:      12814  ROW_BUFFER_MISS:      44889  FULL:          0

 AVG_CONGESTED_CYCLE: 5

CPU 0 Branch Prediction Accuracy: 98.8607% MPKI: 1.8623 Average ROB Occupancy at Mispredict: 113.291

Branch types
NOT_BRANCH: 41826773 83.6535%
BRANCH_DIRECT_JUMP: 735330 1.47066%
BRANCH_INDIRECT: 269194 0.538388%
BRANCH_CONDITIONAL: 5957947 11.9159%
BRANCH_DIRECT_CALL: 368758 0.737516%
BRANCH_INDIRECT_CALL: 226975 0.45395%
BRANCH_RETURN: 614696 1.22939%
BRANCH_OTHER: 0 0%

