Initialize SIGNATURE TABLE
ST_SET: 1
ST_WAY: 256
ST_TAG_BIT: 16
ST_TAG_MASK: ffff

Initialize PATTERN TABLE
PT_SET: 512
PT_WAY: 4
SIG_DELTA_BIT: 7
C_SIG_BIT: 4
C_DELTA_BIT: 4

Initialize PREFETCH FILTER
FILTER_SET: 1024

*** ChampSim Multicore Out-of-Order Simulator ***

Warmup Instructions: 50000000
Simulation Instructions: 50000000
Number of CPUs: 1
LLC sets: 2048
LLC ways: 16
Off-chip DRAM Size: 4096 MB Channels: 1 Width: 64-bit Data Rate: 3200 MT/s

CPU 0 runs /Users/brandon/Documents/CoursesWi22/CSE240C/Homework1/ChampSim/ipc1_public/server_032.champsimtrace.xz
L1I D-JOLT instruction prefetcher has been constructed!
CPU 0 L1D next line prefetcher
Heartbeat CPU 0 instructions: 10000002 cycles: 3521891 heartbeat IPC: 2.83938 cumulative IPC: 2.83938 (Simulation time: 0 hr 1 min 41 sec) 
Heartbeat CPU 0 instructions: 20000003 cycles: 7044341 heartbeat IPC: 2.83893 cumulative IPC: 2.83916 (Simulation time: 0 hr 3 min 24 sec) 
Heartbeat CPU 0 instructions: 30000000 cycles: 10566886 heartbeat IPC: 2.83886 cumulative IPC: 2.83906 (Simulation time: 0 hr 5 min 6 sec) 
Heartbeat CPU 0 instructions: 40000003 cycles: 14090765 heartbeat IPC: 2.83778 cumulative IPC: 2.83874 (Simulation time: 0 hr 6 min 49 sec) 
Heartbeat CPU 0 instructions: 50000000 cycles: 17614002 heartbeat IPC: 2.8383 cumulative IPC: 2.83865 (Simulation time: 0 hr 8 min 30 sec) 

Warmup complete CPU 0 instructions: 50000004 cycles: 17614003 (Simulation time: 0 hr 8 min 30 sec) 

Heartbeat CPU 0 instructions: 60000002 cycles: 24287736 heartbeat IPC: 1.49841 cumulative IPC: 1.49841 (Simulation time: 0 hr 10 min 16 sec) 
Heartbeat CPU 0 instructions: 70000000 cycles: 30957199 heartbeat IPC: 1.49937 cumulative IPC: 1.49889 (Simulation time: 0 hr 12 min 5 sec) 
*** Reached end of trace for Core: 0 Repeating trace: /Users/brandon/Documents/CoursesWi22/CSE240C/Homework1/ChampSim/ipc1_public/server_032.champsimtrace.xz
Heartbeat CPU 0 instructions: 80000003 cycles: 37627186 heartbeat IPC: 1.49925 cumulative IPC: 1.49901 (Simulation time: 0 hr 13 min 55 sec) 
Heartbeat CPU 0 instructions: 90000002 cycles: 44269321 heartbeat IPC: 1.50554 cumulative IPC: 1.50064 (Simulation time: 0 hr 15 min 30 sec) 
Heartbeat CPU 0 instructions: 100000001 cycles: 50920896 heartbeat IPC: 1.5034 cumulative IPC: 1.50119 (Simulation time: 0 hr 16 min 54 sec) 
Finished CPU 0 instructions: 50000002 cycles: 33306895 cumulative IPC: 1.50119 (Simulation time: 0 hr 16 min 54 sec) 

ChampSim completed all CPUs

Region of Interest Statistics

CPU 0 cumulative IPC: 1.50119 instructions: 50000002 cycles: 33306895
L1D TOTAL     ACCESS:   19817085  HIT:   17989033  MISS:    1828052
L1D LOAD      ACCESS:    6767266  HIT:    5973947  MISS:     793319
L1D RFO       ACCESS:    6559736  HIT:    6265099  MISS:     294637
L1D PREFETCH  ACCESS:    6490083  HIT:    5749987  MISS:     740096
L1D WRITEBACK ACCESS:          0  HIT:          0  MISS:          0
L1D PREFETCH  REQUESTED:    6815541  ISSUED:    6676499  USEFUL:     170768  USELESS:     569327
L1D AVERAGE MISS LATENCY: 18.3437 cycles
L1I TOTAL     ACCESS:   17173647  HIT:   13789124  MISS:    3384523
L1I LOAD      ACCESS:    9697956  HIT:    9644439  MISS:      53517
L1I RFO       ACCESS:          0  HIT:          0  MISS:          0
L1I PREFETCH  ACCESS:    7475691  HIT:    4144685  MISS:    3331006
L1I WRITEBACK ACCESS:          0  HIT:          0  MISS:          0
L1I PREFETCH  REQUESTED:    7807037  ISSUED:    7785794  USEFUL:    3139198  USELESS:     191808
L1I AVERAGE MISS LATENCY: 17.3946 cycles
L2C TOTAL     ACCESS:    7627667  HIT:    7127246  MISS:     500421
L2C LOAD      ACCESS:     819236  HIT:     732983  MISS:      86253
L2C RFO       ACCESS:     292729  HIT:     250237  MISS:      42492
L2C PREFETCH  ACCESS:    5879331  HIT:    5509933  MISS:     369398
L2C WRITEBACK ACCESS:     636371  HIT:     634093  MISS:       2278
L2C PREFETCH  REQUESTED:    5456820  ISSUED:    5441546  USEFUL:       4116  USELESS:     365211
L2C AVERAGE MISS LATENCY: 32.8177 cycles
LLC TOTAL     ACCESS:    2128663  HIT:    2122244  MISS:       6419
LLC LOAD      ACCESS:      86135  HIT:      85675  MISS:        460
LLC RFO       ACCESS:      42491  HIT:      42490  MISS:          1
LLC PREFETCH  ACCESS:    1927502  HIT:    1921575  MISS:       5927
LLC WRITEBACK ACCESS:      72535  HIT:      72504  MISS:         31
LLC PREFETCH  REQUESTED:          0  ISSUED:          0  USEFUL:        377  USELESS:       2455
LLC AVERAGE MISS LATENCY: 150.057 cycles
Major fault: 0 Minor fault: 1183
CPU 0 L1D next line prefetcher final stats

DRAM Statistics
 CHANNEL 0
 RQ ROW_BUFFER_HIT:       1554  ROW_BUFFER_MISS:       4834
 DBUS_CONGESTED:        698
 WQ ROW_BUFFER_HIT:          2  ROW_BUFFER_MISS:         23  FULL:          0

 AVG_CONGESTED_CYCLE: 4

CPU 0 Branch Prediction Accuracy: 99.8762% MPKI: 0.2296 Average ROB Occupancy at Mispredict: 179.113

Branch types
NOT_BRANCH: 40726177 81.4524%
BRANCH_DIRECT_JUMP: 508374 1.01675%
BRANCH_INDIRECT: 180051 0.360102%
BRANCH_CONDITIONAL: 5999665 11.9993%
BRANCH_DIRECT_CALL: 1086739 2.17348%
BRANCH_INDIRECT_CALL: 206109 0.412218%
BRANCH_RETURN: 1292837 2.58567%
BRANCH_OTHER: 0 0%

