Initialize SIGNATURE TABLE
ST_SET: 1
ST_WAY: 256
ST_TAG_BIT: 16
ST_TAG_MASK: ffff

Initialize PATTERN TABLE
PT_SET: 512
PT_WAY: 4
SIG_DELTA_BIT: 7
C_SIG_BIT: 4
C_DELTA_BIT: 4

Initialize PREFETCH FILTER
FILTER_SET: 1024

*** ChampSim Multicore Out-of-Order Simulator ***

Warmup Instructions: 50000000
Simulation Instructions: 50000000
Number of CPUs: 1
LLC sets: 2048
LLC ways: 16
Off-chip DRAM Size: 4096 MB Channels: 1 Width: 64-bit Data Rate: 3200 MT/s

CPU 0 runs /Users/brandon/Documents/CoursesWi22/CSE240C/Homework1/ChampSim/ipc1_public/server_019.champsimtrace.xz
L1I D-JOLT instruction prefetcher has been constructed!
CPU 0 L1D next line prefetcher
Heartbeat CPU 0 instructions: 10000002 cycles: 3622620 heartbeat IPC: 2.76043 cumulative IPC: 2.76043 (Simulation time: 0 hr 1 min 43 sec) 
Heartbeat CPU 0 instructions: 20000003 cycles: 7246799 heartbeat IPC: 2.75925 cumulative IPC: 2.75984 (Simulation time: 0 hr 3 min 47 sec) 
Heartbeat CPU 0 instructions: 30000002 cycles: 10869860 heartbeat IPC: 2.7601 cumulative IPC: 2.75993 (Simulation time: 0 hr 6 min 2 sec) 
Heartbeat CPU 0 instructions: 40000002 cycles: 14504904 heartbeat IPC: 2.751 cumulative IPC: 2.75769 (Simulation time: 0 hr 8 min 23 sec) 
Heartbeat CPU 0 instructions: 50000001 cycles: 18128278 heartbeat IPC: 2.75986 cumulative IPC: 2.75812 (Simulation time: 0 hr 10 min 44 sec) 

Warmup complete CPU 0 instructions: 50000001 cycles: 18128278 (Simulation time: 0 hr 10 min 44 sec) 

Heartbeat CPU 0 instructions: 60000000 cycles: 37886032 heartbeat IPC: 0.50613 cumulative IPC: 0.50613 (Simulation time: 0 hr 13 min 49 sec) 
Heartbeat CPU 0 instructions: 70000002 cycles: 61459450 heartbeat IPC: 0.424207 cumulative IPC: 0.461562 (Simulation time: 0 hr 16 min 25 sec) 
Heartbeat CPU 0 instructions: 80000001 cycles: 82021141 heartbeat IPC: 0.486341 cumulative IPC: 0.469536 (Simulation time: 0 hr 18 min 25 sec) 
Heartbeat CPU 0 instructions: 90000002 cycles: 99579757 heartbeat IPC: 0.569521 cumulative IPC: 0.49109 (Simulation time: 0 hr 19 min 22 sec) 
Heartbeat CPU 0 instructions: 100000002 cycles: 117082858 heartbeat IPC: 0.571327 cumulative IPC: 0.505282 (Simulation time: 0 hr 20 min 0 sec) 
Finished CPU 0 instructions: 50000001 cycles: 98954580 cumulative IPC: 0.505282 (Simulation time: 0 hr 20 min 0 sec) 

ChampSim completed all CPUs

Region of Interest Statistics

CPU 0 cumulative IPC: 0.505282 instructions: 50000001 cycles: 98954580
L1D TOTAL     ACCESS:   18299666  HIT:   16076162  MISS:    2223504
L1D LOAD      ACCESS:    6975836  HIT:    6223575  MISS:     752261
L1D RFO       ACCESS:    5512176  HIT:    4610291  MISS:     901885
L1D PREFETCH  ACCESS:    5811654  HIT:    5242296  MISS:     569358
L1D WRITEBACK ACCESS:          0  HIT:          0  MISS:          0
L1D PREFETCH  REQUESTED:    7012752  ISSUED:    6826750  USEFUL:     200129  USELESS:     369138
L1D AVERAGE MISS LATENCY: 188.631 cycles
L1I TOTAL     ACCESS:   17785234  HIT:   14563322  MISS:    3221912
L1I LOAD      ACCESS:    9887056  HIT:    9847623  MISS:      39433
L1I RFO       ACCESS:          0  HIT:          0  MISS:          0
L1I PREFETCH  ACCESS:    7898178  HIT:    4715699  MISS:    3182479
L1I WRITEBACK ACCESS:          0  HIT:          0  MISS:          0
L1I PREFETCH  REQUESTED:    8562411  ISSUED:    8503579  USEFUL:    2455346  USELESS:     727070
L1I AVERAGE MISS LATENCY: 18.947 cycles
L2C TOTAL     ACCESS:    8031921  HIT:    6135576  MISS:    1896345
L2C LOAD      ACCESS:     583664  HIT:     247948  MISS:     335716
L2C RFO       ACCESS:     901417  HIT:      18224  MISS:     883193
L2C PREFETCH  ACCESS:    5372252  HIT:    4696981  MISS:     675271
L2C WRITEBACK ACCESS:    1174588  HIT:    1172423  MISS:       2165
L2C PREFETCH  REQUESTED:    4945972  ISSUED:    4941867  USEFUL:      21462  USELESS:     652366
L2C AVERAGE MISS LATENCY: 225.641 cycles
LLC TOTAL     ACCESS:    4393630  HIT:    2767392  MISS:    1626238
LLC LOAD      ACCESS:     335640  HIT:     168014  MISS:     167626
LLC RFO       ACCESS:     883193  HIT:     114817  MISS:     768376
LLC PREFETCH  ACCESS:    2063685  HIT:    1375431  MISS:     688254
LLC WRITEBACK ACCESS:    1111112  HIT:    1109130  MISS:       1982
LLC PREFETCH  REQUESTED:          0  ISSUED:          0  USEFUL:      54167  USELESS:     632828
LLC AVERAGE MISS LATENCY: 280.833 cycles
Major fault: 0 Minor fault: 25694
CPU 0 L1D next line prefetcher final stats

DRAM Statistics
 CHANNEL 0
 RQ ROW_BUFFER_HIT:     399498  ROW_BUFFER_MISS:    1224527
 DBUS_CONGESTED:    1598857
 WQ ROW_BUFFER_HIT:     259205  ROW_BUFFER_MISS:     680789  FULL:          0

 AVG_CONGESTED_CYCLE: 6

CPU 0 Branch Prediction Accuracy: 99.2186% MPKI: 1.32192 Average ROB Occupancy at Mispredict: 179.53

Branch types
NOT_BRANCH: 41540785 83.0816%
BRANCH_DIRECT_JUMP: 462384 0.924768%
BRANCH_INDIRECT: 45460 0.09092%
BRANCH_CONDITIONAL: 6209281 12.4186%
BRANCH_DIRECT_CALL: 666241 1.33248%
BRANCH_INDIRECT_CALL: 204728 0.409456%
BRANCH_RETURN: 870978 1.74196%
BRANCH_OTHER: 0 0%

