Initialize SIGNATURE TABLE
ST_SET: 1
ST_WAY: 256
ST_TAG_BIT: 16
ST_TAG_MASK: ffff

Initialize PATTERN TABLE
PT_SET: 512
PT_WAY: 4
SIG_DELTA_BIT: 7
C_SIG_BIT: 4
C_DELTA_BIT: 4

Initialize PREFETCH FILTER
FILTER_SET: 1024

*** ChampSim Multicore Out-of-Order Simulator ***

Warmup Instructions: 50000000
Simulation Instructions: 50000000
Number of CPUs: 1
LLC sets: 2048
LLC ways: 16
Off-chip DRAM Size: 4096 MB Channels: 1 Width: 64-bit Data Rate: 3200 MT/s

CPU 0 runs /Users/brandon/Documents/CoursesWi22/CSE240C/Homework1/ChampSim/ipc1_public/server_028.champsimtrace.xz
L1I D-JOLT instruction prefetcher has been constructed!
CPU 0 L1D next line prefetcher
Heartbeat CPU 0 instructions: 10000001 cycles: 3493954 heartbeat IPC: 2.86209 cumulative IPC: 2.86209 (Simulation time: 0 hr 1 min 39 sec) 
Heartbeat CPU 0 instructions: 20000002 cycles: 6989613 heartbeat IPC: 2.86069 cumulative IPC: 2.86139 (Simulation time: 0 hr 3 min 20 sec) 
Heartbeat CPU 0 instructions: 30000001 cycles: 10483957 heartbeat IPC: 2.86177 cumulative IPC: 2.86152 (Simulation time: 0 hr 5 min 2 sec) 
Heartbeat CPU 0 instructions: 40000002 cycles: 13983691 heartbeat IPC: 2.85736 cumulative IPC: 2.86048 (Simulation time: 0 hr 6 min 42 sec) 
Heartbeat CPU 0 instructions: 50000001 cycles: 17480379 heartbeat IPC: 2.85985 cumulative IPC: 2.86035 (Simulation time: 0 hr 8 min 23 sec) 

Warmup complete CPU 0 instructions: 50000001 cycles: 17480379 (Simulation time: 0 hr 8 min 23 sec) 

Heartbeat CPU 0 instructions: 60000000 cycles: 25007554 heartbeat IPC: 1.32852 cumulative IPC: 1.32852 (Simulation time: 0 hr 10 min 7 sec) 
Heartbeat CPU 0 instructions: 70000000 cycles: 32549811 heartbeat IPC: 1.32586 cumulative IPC: 1.32719 (Simulation time: 0 hr 11 min 55 sec) 
Heartbeat CPU 0 instructions: 80000000 cycles: 40080806 heartbeat IPC: 1.32785 cumulative IPC: 1.32741 (Simulation time: 0 hr 13 min 46 sec) 
*** Reached end of trace for Core: 0 Repeating trace: /Users/brandon/Documents/CoursesWi22/CSE240C/Homework1/ChampSim/ipc1_public/server_028.champsimtrace.xz
Heartbeat CPU 0 instructions: 90000001 cycles: 47573358 heartbeat IPC: 1.33466 cumulative IPC: 1.32921 (Simulation time: 0 hr 15 min 22 sec) 
Heartbeat CPU 0 instructions: 100000003 cycles: 55047123 heartbeat IPC: 1.33801 cumulative IPC: 1.33096 (Simulation time: 0 hr 16 min 50 sec) 
Finished CPU 0 instructions: 50000002 cycles: 37566744 cumulative IPC: 1.33096 (Simulation time: 0 hr 16 min 50 sec) 

ChampSim completed all CPUs

Region of Interest Statistics

CPU 0 cumulative IPC: 1.33096 instructions: 50000002 cycles: 37566744
L1D TOTAL     ACCESS:   19029309  HIT:   16956067  MISS:    2073242
L1D LOAD      ACCESS:    6718635  HIT:    5671168  MISS:    1047467
L1D RFO       ACCESS:    6098691  HIT:    5814460  MISS:     284231
L1D PREFETCH  ACCESS:    6211983  HIT:    5470439  MISS:     741544
L1D WRITEBACK ACCESS:          0  HIT:          0  MISS:          0
L1D PREFETCH  REQUESTED:    6780655  ISSUED:    6670427  USEFUL:     175492  USELESS:     566055
L1D AVERAGE MISS LATENCY: 22.2361 cycles
L1I TOTAL     ACCESS:   16986014  HIT:   13596370  MISS:    3389644
L1I LOAD      ACCESS:    9796428  HIT:    9753231  MISS:      43197
L1I RFO       ACCESS:          0  HIT:          0  MISS:          0
L1I PREFETCH  ACCESS:    7189586  HIT:    3843139  MISS:    3346447
L1I WRITEBACK ACCESS:          0  HIT:          0  MISS:          0
L1I PREFETCH  REQUESTED:    7747365  ISSUED:    7591961  USEFUL:    2896120  USELESS:     450328
L1I AVERAGE MISS LATENCY: 19.8487 cycles
L2C TOTAL     ACCESS:    7742876  HIT:    6794053  MISS:     948823
L2C LOAD      ACCESS:     937720  HIT:     755288  MISS:     182432
L2C RFO       ACCESS:     281661  HIT:     217500  MISS:      64161
L2C PREFETCH  ACCESS:    5918590  HIT:    5221126  MISS:     697464
L2C WRITEBACK ACCESS:     604905  HIT:     600139  MISS:       4766
L2C PREFETCH  REQUESTED:    5777109  ISSUED:    5762747  USEFUL:      12240  USELESS:     685135
L2C AVERAGE MISS LATENCY: 38.6151 cycles
LLC TOTAL     ACCESS:    2754867  HIT:    2682966  MISS:      71901
LLC LOAD      ACCESS:     182089  HIT:     165848  MISS:      16241
LLC RFO       ACCESS:      64154  HIT:      62190  MISS:       1964
LLC PREFETCH  ACCESS:    2382022  HIT:    2328691  MISS:      53331
LLC WRITEBACK ACCESS:     126602  HIT:     126237  MISS:        365
LLC PREFETCH  REQUESTED:          0  ISSUED:          0  USEFUL:       2145  USELESS:      50050
LLC AVERAGE MISS LATENCY: 157.368 cycles
Major fault: 0 Minor fault: 6043
CPU 0 L1D next line prefetcher final stats

DRAM Statistics
 CHANNEL 0
 RQ ROW_BUFFER_HIT:      19551  ROW_BUFFER_MISS:      51985
 DBUS_CONGESTED:      27750
 WQ ROW_BUFFER_HIT:        410  ROW_BUFFER_MISS:       3359  FULL:          0

 AVG_CONGESTED_CYCLE: 5

CPU 0 Branch Prediction Accuracy: 99.7093% MPKI: 0.54708 Average ROB Occupancy at Mispredict: 148.439

Branch types
NOT_BRANCH: 40590920 81.1818%
BRANCH_DIRECT_JUMP: 523494 1.04699%
BRANCH_INDIRECT: 166997 0.333994%
BRANCH_CONDITIONAL: 6365181 12.7304%
BRANCH_DIRECT_CALL: 989493 1.97899%
BRANCH_INDIRECT_CALL: 187203 0.374406%
BRANCH_RETURN: 1176698 2.3534%
BRANCH_OTHER: 0 0%

