Initialize SIGNATURE TABLE
ST_SET: 1
ST_WAY: 256
ST_TAG_BIT: 16
ST_TAG_MASK: ffff

Initialize PATTERN TABLE
PT_SET: 512
PT_WAY: 4
SIG_DELTA_BIT: 7
C_SIG_BIT: 4
C_DELTA_BIT: 4

Initialize PREFETCH FILTER
FILTER_SET: 1024

*** ChampSim Multicore Out-of-Order Simulator ***

Warmup Instructions: 50000000
Simulation Instructions: 50000000
Number of CPUs: 1
LLC sets: 2048
LLC ways: 16
Off-chip DRAM Size: 4096 MB Channels: 1 Width: 64-bit Data Rate: 3200 MT/s

CPU 0 runs /Users/brandon/Documents/CoursesWi22/CSE240C/Homework1/ChampSim/ipc1_public/server_034.champsimtrace.xz
L1I D-JOLT instruction prefetcher has been constructed!
CPU 0 L1D next line prefetcher
Heartbeat CPU 0 instructions: 10000000 cycles: 3331866 heartbeat IPC: 3.00132 cumulative IPC: 3.00132 (Simulation time: 0 hr 1 min 37 sec) 
Heartbeat CPU 0 instructions: 20000002 cycles: 6656632 heartbeat IPC: 3.00773 cumulative IPC: 3.00452 (Simulation time: 0 hr 3 min 17 sec) 
Heartbeat CPU 0 instructions: 30000003 cycles: 9989385 heartbeat IPC: 3.00052 cumulative IPC: 3.00319 (Simulation time: 0 hr 4 min 56 sec) 
Heartbeat CPU 0 instructions: 40000001 cycles: 13320457 heartbeat IPC: 3.00204 cumulative IPC: 3.0029 (Simulation time: 0 hr 6 min 36 sec) 
Heartbeat CPU 0 instructions: 50000000 cycles: 16650521 heartbeat IPC: 3.00294 cumulative IPC: 3.00291 (Simulation time: 0 hr 8 min 15 sec) 

Warmup complete CPU 0 instructions: 50000002 cycles: 16650522 (Simulation time: 0 hr 8 min 15 sec) 

Heartbeat CPU 0 instructions: 60000002 cycles: 22596233 heartbeat IPC: 1.68188 cumulative IPC: 1.68188 (Simulation time: 0 hr 9 min 55 sec) 
Heartbeat CPU 0 instructions: 70000003 cycles: 28962344 heartbeat IPC: 1.57082 cumulative IPC: 1.62445 (Simulation time: 0 hr 11 min 40 sec) 
Heartbeat CPU 0 instructions: 80000002 cycles: 35002678 heartbeat IPC: 1.65554 cumulative IPC: 1.63469 (Simulation time: 0 hr 13 min 28 sec) 
Heartbeat CPU 0 instructions: 90000002 cycles: 41041991 heartbeat IPC: 1.65582 cumulative IPC: 1.63992 (Simulation time: 0 hr 15 min 4 sec) 
Heartbeat CPU 0 instructions: 100000002 cycles: 47045223 heartbeat IPC: 1.66577 cumulative IPC: 1.64502 (Simulation time: 0 hr 16 min 35 sec) 
Finished CPU 0 instructions: 50000000 cycles: 30394701 cumulative IPC: 1.64502 (Simulation time: 0 hr 16 min 35 sec) 

ChampSim completed all CPUs

Region of Interest Statistics

CPU 0 cumulative IPC: 1.64502 instructions: 50000000 cycles: 30394701
L1D TOTAL     ACCESS:   18221753  HIT:   16797693  MISS:    1424060
L1D LOAD      ACCESS:    6121947  HIT:    5465881  MISS:     656066
L1D RFO       ACCESS:    6158916  HIT:    6016382  MISS:     142534
L1D PREFETCH  ACCESS:    5940890  HIT:    5315430  MISS:     625460
L1D WRITEBACK ACCESS:          0  HIT:          0  MISS:          0
L1D PREFETCH  REQUESTED:    6156395  ISSUED:    6066596  USEFUL:     141040  USELESS:     484389
L1D AVERAGE MISS LATENCY: 18.0332 cycles
L1I TOTAL     ACCESS:   19147301  HIT:   15145268  MISS:    4002033
L1I LOAD      ACCESS:    9676554  HIT:    9623026  MISS:      53528
L1I RFO       ACCESS:          0  HIT:          0  MISS:          0
L1I PREFETCH  ACCESS:    9470747  HIT:    5522242  MISS:    3948505
L1I WRITEBACK ACCESS:          0  HIT:          0  MISS:          0
L1I PREFETCH  REQUESTED:   10112351  ISSUED:    9874339  USEFUL:    3322135  USELESS:     626327
L1I AVERAGE MISS LATENCY: 15.0659 cycles
L2C TOTAL     ACCESS:    7479366  HIT:    7330375  MISS:     148991
L2C LOAD      ACCESS:     696704  HIT:     651454  MISS:      45250
L2C RFO       ACCESS:     140708  HIT:     128716  MISS:      11992
L2C PREFETCH  ACCESS:    6291210  HIT:    6202208  MISS:      89002
L2C WRITEBACK ACCESS:     350744  HIT:     347997  MISS:       2747
L2C PREFETCH  REQUESTED:    5771817  ISSUED:    5762159  USEFUL:       3215  USELESS:      85218
L2C AVERAGE MISS LATENCY: 39.1223 cycles
LLC TOTAL     ACCESS:    1814898  HIT:    1799382  MISS:      15516
LLC LOAD      ACCESS:      45175  HIT:      42229  MISS:       2946
LLC RFO       ACCESS:      11986  HIT:      11638  MISS:        348
LLC PREFETCH  ACCESS:    1710221  HIT:    1698057  MISS:      12164
LLC WRITEBACK ACCESS:      47516  HIT:      47458  MISS:         58
LLC PREFETCH  REQUESTED:          0  ISSUED:          0  USEFUL:       3216  USELESS:       6371
LLC AVERAGE MISS LATENCY: 164.495 cycles
Major fault: 0 Minor fault: 1173
CPU 0 L1D next line prefetcher final stats

DRAM Statistics
 CHANNEL 0
 RQ ROW_BUFFER_HIT:       3459  ROW_BUFFER_MISS:      11993
 DBUS_CONGESTED:       6702
 WQ ROW_BUFFER_HIT:       1320  ROW_BUFFER_MISS:       3415  FULL:          0

 AVG_CONGESTED_CYCLE: 5

CPU 0 Branch Prediction Accuracy: 99.926% MPKI: 0.14472 Average ROB Occupancy at Mispredict: 267.355

Branch types
NOT_BRANCH: 40221093 80.4422%
BRANCH_DIRECT_JUMP: 771319 1.54264%
BRANCH_INDIRECT: 108663 0.217326%
BRANCH_CONDITIONAL: 6375046 12.7501%
BRANCH_DIRECT_CALL: 1049638 2.09928%
BRANCH_INDIRECT_CALL: 212283 0.424566%
BRANCH_RETURN: 1261926 2.52385%
BRANCH_OTHER: 0 0%

