Initialize SIGNATURE TABLE
ST_SET: 1
ST_WAY: 256
ST_TAG_BIT: 16
ST_TAG_MASK: ffff

Initialize PATTERN TABLE
PT_SET: 512
PT_WAY: 4
SIG_DELTA_BIT: 7
C_SIG_BIT: 4
C_DELTA_BIT: 4

Initialize PREFETCH FILTER
FILTER_SET: 1024

*** ChampSim Multicore Out-of-Order Simulator ***

Warmup Instructions: 50000000
Simulation Instructions: 50000000
Number of CPUs: 1
LLC sets: 2048
LLC ways: 16
Off-chip DRAM Size: 4096 MB Channels: 1 Width: 64-bit Data Rate: 3200 MT/s

CPU 0 runs /Users/brandon/Documents/CoursesWi22/CSE240C/Homework1/ChampSim/ipc1_public/server_031.champsimtrace.xz
L1I D-JOLT instruction prefetcher has been constructed!
CPU 0 L1D next line prefetcher
Heartbeat CPU 0 instructions: 10000003 cycles: 3521620 heartbeat IPC: 2.8396 cumulative IPC: 2.8396 (Simulation time: 0 hr 1 min 41 sec) 
Heartbeat CPU 0 instructions: 20000002 cycles: 7042191 heartbeat IPC: 2.84045 cumulative IPC: 2.84003 (Simulation time: 0 hr 3 min 24 sec) 
Heartbeat CPU 0 instructions: 30000002 cycles: 10563100 heartbeat IPC: 2.84018 cumulative IPC: 2.84008 (Simulation time: 0 hr 5 min 7 sec) 
Heartbeat CPU 0 instructions: 40000003 cycles: 14078610 heartbeat IPC: 2.84454 cumulative IPC: 2.84119 (Simulation time: 0 hr 6 min 49 sec) 
Heartbeat CPU 0 instructions: 50000001 cycles: 17597259 heartbeat IPC: 2.842 cumulative IPC: 2.84135 (Simulation time: 0 hr 8 min 31 sec) 

Warmup complete CPU 0 instructions: 50000001 cycles: 17597259 (Simulation time: 0 hr 8 min 31 sec) 

Heartbeat CPU 0 instructions: 60000001 cycles: 25120601 heartbeat IPC: 1.3292 cumulative IPC: 1.3292 (Simulation time: 0 hr 10 min 18 sec) 
Heartbeat CPU 0 instructions: 70000002 cycles: 32698462 heartbeat IPC: 1.31963 cumulative IPC: 1.3244 (Simulation time: 0 hr 12 min 8 sec) 
*** Reached end of trace for Core: 0 Repeating trace: /Users/brandon/Documents/CoursesWi22/CSE240C/Homework1/ChampSim/ipc1_public/server_031.champsimtrace.xz
Heartbeat CPU 0 instructions: 80000000 cycles: 40142886 heartbeat IPC: 1.34329 cumulative IPC: 1.33063 (Simulation time: 0 hr 14 min 0 sec) 
Heartbeat CPU 0 instructions: 90000003 cycles: 47613709 heartbeat IPC: 1.33854 cumulative IPC: 1.3326 (Simulation time: 0 hr 15 min 38 sec) 
Heartbeat CPU 0 instructions: 100000000 cycles: 55044008 heartbeat IPC: 1.34584 cumulative IPC: 1.33523 (Simulation time: 0 hr 16 min 57 sec) 
Finished CPU 0 instructions: 50000000 cycles: 37446751 cumulative IPC: 1.33523 (Simulation time: 0 hr 16 min 57 sec) 

ChampSim completed all CPUs

Region of Interest Statistics

CPU 0 cumulative IPC: 1.33523 instructions: 50000000 cycles: 37446751
L1D TOTAL     ACCESS:   19481639  HIT:   17577156  MISS:    1904483
L1D LOAD      ACCESS:    6754624  HIT:    5881098  MISS:     873526
L1D RFO       ACCESS:    6318228  HIT:    6026363  MISS:     291865
L1D PREFETCH  ACCESS:    6408787  HIT:    5669695  MISS:     739092
L1D WRITEBACK ACCESS:          0  HIT:          0  MISS:          0
L1D PREFETCH  REQUESTED:    6817941  ISSUED:    6701784  USEFUL:     173479  USELESS:     565618
L1D AVERAGE MISS LATENCY: 23.1872 cycles
L1I TOTAL     ACCESS:   17233482  HIT:   13691712  MISS:    3541770
L1I LOAD      ACCESS:    9739656  HIT:    9705381  MISS:      34275
L1I RFO       ACCESS:          0  HIT:          0  MISS:          0
L1I PREFETCH  ACCESS:    7493826  HIT:    3986331  MISS:    3507495
L1I WRITEBACK ACCESS:          0  HIT:          0  MISS:          0
L1I PREFETCH  REQUESTED:    8029419  ISSUED:    7893186  USEFUL:    3020250  USELESS:     487245
L1I AVERAGE MISS LATENCY: 18.426 cycles
L2C TOTAL     ACCESS:    7762099  HIT:    7042009  MISS:     720090
L2C LOAD      ACCESS:     857773  HIT:     709018  MISS:     148755
L2C RFO       ACCESS:     289650  HIT:     245762  MISS:      43888
L2C PREFETCH  ACCESS:    5997731  HIT:    5471875  MISS:     525856
L2C WRITEBACK ACCESS:     616945  HIT:     615354  MISS:       1591
L2C PREFETCH  REQUESTED:    5614653  ISSUED:    5605372  USEFUL:       6372  USELESS:     518890
L2C AVERAGE MISS LATENCY: 42.8358 cycles
LLC TOTAL     ACCESS:    2257379  HIT:    2179907  MISS:      77472
LLC LOAD      ACCESS:     148652  HIT:     130062  MISS:      18590
LLC RFO       ACCESS:      43879  HIT:      39730  MISS:       4149
LLC PREFETCH  ACCESS:    1972992  HIT:    1918792  MISS:      54200
LLC WRITEBACK ACCESS:      91856  HIT:      91323  MISS:        533
LLC PREFETCH  REQUESTED:          0  ISSUED:          0  USEFUL:       2419  USELESS:      52228
LLC AVERAGE MISS LATENCY: 158.469 cycles
Major fault: 0 Minor fault: 6047
CPU 0 L1D next line prefetcher final stats

DRAM Statistics
 CHANNEL 0
 RQ ROW_BUFFER_HIT:      21114  ROW_BUFFER_MISS:      55821
 DBUS_CONGESTED:      31686
 WQ ROW_BUFFER_HIT:        732  ROW_BUFFER_MISS:       5048  FULL:          0

 AVG_CONGESTED_CYCLE: 4

CPU 0 Branch Prediction Accuracy: 99.6894% MPKI: 0.58048 Average ROB Occupancy at Mispredict: 145.915

Branch types
NOT_BRANCH: 40655661 81.3113%
BRANCH_DIRECT_JUMP: 546483 1.09297%
BRANCH_INDIRECT: 172433 0.344866%
BRANCH_CONDITIONAL: 6207595 12.4152%
BRANCH_DIRECT_CALL: 1018497 2.03699%
BRANCH_INDIRECT_CALL: 190373 0.380746%
BRANCH_RETURN: 1208855 2.41771%
BRANCH_OTHER: 0 0%

