Initialize SIGNATURE TABLE
ST_SET: 1
ST_WAY: 256
ST_TAG_BIT: 16
ST_TAG_MASK: ffff

Initialize PATTERN TABLE
PT_SET: 512
PT_WAY: 4
SIG_DELTA_BIT: 7
C_SIG_BIT: 4
C_DELTA_BIT: 4

Initialize PREFETCH FILTER
FILTER_SET: 1024

*** ChampSim Multicore Out-of-Order Simulator ***

Warmup Instructions: 50000000
Simulation Instructions: 50000000
Number of CPUs: 1
LLC sets: 2048
LLC ways: 16
Off-chip DRAM Size: 4096 MB Channels: 1 Width: 64-bit Data Rate: 3200 MT/s

CPU 0 runs /Users/brandon/Documents/CoursesWi22/CSE240C/Homework1/ChampSim/ipc1_public/server_021.champsimtrace.xz
L1I D-JOLT instruction prefetcher has been constructed!
CPU 0 L1D next line prefetcher
Heartbeat CPU 0 instructions: 10000000 cycles: 3623793 heartbeat IPC: 2.75954 cumulative IPC: 2.75954 (Simulation time: 0 hr 1 min 44 sec) 
Heartbeat CPU 0 instructions: 20000000 cycles: 7241861 heartbeat IPC: 2.76391 cumulative IPC: 2.76172 (Simulation time: 0 hr 3 min 49 sec) 
Heartbeat CPU 0 instructions: 30000003 cycles: 10890921 heartbeat IPC: 2.74043 cumulative IPC: 2.75459 (Simulation time: 0 hr 6 min 2 sec) 
Heartbeat CPU 0 instructions: 40000001 cycles: 14504736 heartbeat IPC: 2.76716 cumulative IPC: 2.75772 (Simulation time: 0 hr 8 min 23 sec) 
Heartbeat CPU 0 instructions: 50000002 cycles: 18140607 heartbeat IPC: 2.75037 cumulative IPC: 2.75625 (Simulation time: 0 hr 10 min 44 sec) 

Warmup complete CPU 0 instructions: 50000002 cycles: 18140607 (Simulation time: 0 hr 10 min 44 sec) 

Heartbeat CPU 0 instructions: 60000001 cycles: 34950378 heartbeat IPC: 0.594892 cumulative IPC: 0.594892 (Simulation time: 0 hr 13 min 43 sec) 
Heartbeat CPU 0 instructions: 70000002 cycles: 51888386 heartbeat IPC: 0.590388 cumulative IPC: 0.592632 (Simulation time: 0 hr 16 min 23 sec) 
Heartbeat CPU 0 instructions: 80000001 cycles: 68646588 heartbeat IPC: 0.596723 cumulative IPC: 0.593989 (Simulation time: 0 hr 18 min 25 sec) 
Heartbeat CPU 0 instructions: 90000001 cycles: 85633209 heartbeat IPC: 0.588699 cumulative IPC: 0.592658 (Simulation time: 0 hr 19 min 22 sec) 
Heartbeat CPU 0 instructions: 100000002 cycles: 102404595 heartbeat IPC: 0.596254 cumulative IPC: 0.593373 (Simulation time: 0 hr 20 min 0 sec) 
Finished CPU 0 instructions: 50000000 cycles: 84263988 cumulative IPC: 0.593373 (Simulation time: 0 hr 20 min 0 sec) 

ChampSim completed all CPUs

Region of Interest Statistics

CPU 0 cumulative IPC: 0.593373 instructions: 50000000 cycles: 84263988
L1D TOTAL     ACCESS:   18704715  HIT:   16501258  MISS:    2203457
L1D LOAD      ACCESS:    7059401  HIT:    6357543  MISS:     701858
L1D RFO       ACCESS:    5878207  HIT:    4902716  MISS:     975491
L1D PREFETCH  ACCESS:    5767107  HIT:    5240999  MISS:     526108
L1D WRITEBACK ACCESS:          0  HIT:          0  MISS:          0
L1D PREFETCH  REQUESTED:    7102135  ISSUED:    6896464  USEFUL:     204847  USELESS:     321255
L1D AVERAGE MISS LATENCY: 182.946 cycles
L1I TOTAL     ACCESS:   18710544  HIT:   15215559  MISS:    3494985
L1I LOAD      ACCESS:   10139613  HIT:   10093394  MISS:      46219
L1I RFO       ACCESS:          0  HIT:          0  MISS:          0
L1I PREFETCH  ACCESS:    8570931  HIT:    5122165  MISS:    3448766
L1I WRITEBACK ACCESS:          0  HIT:          0  MISS:          0
L1I PREFETCH  REQUESTED:    9315990  ISSUED:    9187094  USEFUL:    2752799  USELESS:     695933
L1I AVERAGE MISS LATENCY: 17.6787 cycles
L2C TOTAL     ACCESS:    8393958  HIT:    6528879  MISS:    1865079
L2C LOAD      ACCESS:     511272  HIT:     262173  MISS:     249099
L2C RFO       ACCESS:     974962  HIT:      21414  MISS:     953548
L2C PREFETCH  ACCESS:    5727839  HIT:    5068171  MISS:     659668
L2C WRITEBACK ACCESS:    1179885  HIT:    1177121  MISS:       2764
L2C PREFETCH  REQUESTED:    5214877  ISSUED:    5208318  USEFUL:      19705  USELESS:     639895
L2C AVERAGE MISS LATENCY: 221.995 cycles
LLC TOTAL     ACCESS:    4282382  HIT:    2856888  MISS:    1425494
LLC LOAD      ACCESS:     249009  HIT:     169436  MISS:      79573
LLC RFO       ACCESS:     953546  HIT:     141090  MISS:     812456
LLC PREFETCH  ACCESS:    1966625  HIT:    1435688  MISS:     530937
LLC WRITEBACK ACCESS:    1113202  HIT:    1110674  MISS:       2528
LLC PREFETCH  REQUESTED:          0  ISSUED:          0  USEFUL:      32073  USELESS:     497419
LLC AVERAGE MISS LATENCY: 297.883 cycles
Major fault: 0 Minor fault: 22292
CPU 0 L1D next line prefetcher final stats

DRAM Statistics
 CHANNEL 0
 RQ ROW_BUFFER_HIT:     409378  ROW_BUFFER_MISS:    1013246
 DBUS_CONGESTED:    1465934
 WQ ROW_BUFFER_HIT:     251987  ROW_BUFFER_MISS:     653544  FULL:          0

 AVG_CONGESTED_CYCLE: 6

CPU 0 Branch Prediction Accuracy: 99.8303% MPKI: 0.27838 Average ROB Occupancy at Mispredict: 227.26

Branch types
NOT_BRANCH: 41798555 83.5971%
BRANCH_DIRECT_JUMP: 445215 0.89043%
BRANCH_INDIRECT: 50481 0.100962%
BRANCH_CONDITIONAL: 5868247 11.7365%
BRANCH_DIRECT_CALL: 758228 1.51646%
BRANCH_INDIRECT_CALL: 160494 0.320988%
BRANCH_RETURN: 918719 1.83744%
BRANCH_OTHER: 0 0%

