Initialize SIGNATURE TABLE
ST_SET: 1
ST_WAY: 256
ST_TAG_BIT: 16
ST_TAG_MASK: ffff

Initialize PATTERN TABLE
PT_SET: 512
PT_WAY: 4
SIG_DELTA_BIT: 7
C_SIG_BIT: 4
C_DELTA_BIT: 4

Initialize PREFETCH FILTER
FILTER_SET: 1024

*** ChampSim Multicore Out-of-Order Simulator ***

Warmup Instructions: 50000000
Simulation Instructions: 50000000
Number of CPUs: 1
LLC sets: 2048
LLC ways: 16
Off-chip DRAM Size: 4096 MB Channels: 1 Width: 64-bit Data Rate: 3200 MT/s

CPU 0 runs /Users/brandon/Documents/CoursesWi22/CSE240C/Homework1/ChampSim/ipc1_public/spec_perlbench_001.champsimtrace.xz
L1I D-JOLT instruction prefetcher has been constructed!
CPU 0 L1D next line prefetcher
Heartbeat CPU 0 instructions: 10000000 cycles: 3276117 heartbeat IPC: 3.05239 cumulative IPC: 3.05239 (Simulation time: 0 hr 1 min 29 sec) 
Heartbeat CPU 0 instructions: 20000000 cycles: 6541693 heartbeat IPC: 3.06225 cumulative IPC: 3.05731 (Simulation time: 0 hr 3 min 4 sec) 
Heartbeat CPU 0 instructions: 30000002 cycles: 9859796 heartbeat IPC: 3.01377 cumulative IPC: 3.04266 (Simulation time: 0 hr 4 min 42 sec) 
Heartbeat CPU 0 instructions: 40000002 cycles: 13115793 heartbeat IPC: 3.07126 cumulative IPC: 3.04976 (Simulation time: 0 hr 6 min 12 sec) 
Heartbeat CPU 0 instructions: 50000001 cycles: 16390102 heartbeat IPC: 3.05408 cumulative IPC: 3.05062 (Simulation time: 0 hr 7 min 40 sec) 

Warmup complete CPU 0 instructions: 50000001 cycles: 16390102 (Simulation time: 0 hr 7 min 40 sec) 

Heartbeat CPU 0 instructions: 60000001 cycles: 24698152 heartbeat IPC: 1.20365 cumulative IPC: 1.20365 (Simulation time: 0 hr 9 min 2 sec) 
Heartbeat CPU 0 instructions: 70000000 cycles: 32840587 heartbeat IPC: 1.22813 cumulative IPC: 1.21577 (Simulation time: 0 hr 10 min 33 sec) 
Heartbeat CPU 0 instructions: 80000000 cycles: 41282587 heartbeat IPC: 1.18455 cumulative IPC: 1.20518 (Simulation time: 0 hr 12 min 0 sec) 
Heartbeat CPU 0 instructions: 90000000 cycles: 47053802 heartbeat IPC: 1.73274 cumulative IPC: 1.30447 (Simulation time: 0 hr 13 min 8 sec) 
Heartbeat CPU 0 instructions: 100000002 cycles: 52979207 heartbeat IPC: 1.68765 cumulative IPC: 1.36653 (Simulation time: 0 hr 14 min 14 sec) 
Finished CPU 0 instructions: 50000001 cycles: 36589105 cumulative IPC: 1.36653 (Simulation time: 0 hr 14 min 14 sec) 

ChampSim completed all CPUs

Region of Interest Statistics

CPU 0 cumulative IPC: 1.36653 instructions: 50000001 cycles: 36589105
L1D TOTAL     ACCESS:   20681587  HIT:   20266509  MISS:     415078
L1D LOAD      ACCESS:    7170570  HIT:    6956886  MISS:     213684
L1D RFO       ACCESS:    6542293  HIT:    6523770  MISS:      18523
L1D PREFETCH  ACCESS:    6968724  HIT:    6785853  MISS:     182871
L1D WRITEBACK ACCESS:          0  HIT:          0  MISS:          0
L1D PREFETCH  REQUESTED:    7186383  ISSUED:    7069965  USEFUL:      55209  USELESS:     127657
L1D AVERAGE MISS LATENCY: 59.7174 cycles
L1I TOTAL     ACCESS:   16330148  HIT:   14994449  MISS:    1335699
L1I LOAD      ACCESS:    9179401  HIT:    9128282  MISS:      51119
L1I RFO       ACCESS:          0  HIT:          0  MISS:          0
L1I PREFETCH  ACCESS:    7150747  HIT:    5866167  MISS:    1284580
L1I WRITEBACK ACCESS:          0  HIT:          0  MISS:          0
L1I PREFETCH  REQUESTED:    7579806  ISSUED:    7284720  USEFUL:     561920  USELESS:     722678
L1I AVERAGE MISS LATENCY: 16.2885 cycles
L2C TOTAL     ACCESS:    2471292  HIT:    2299702  MISS:     171590
L2C LOAD      ACCESS:     256483  HIT:     175104  MISS:      81379
L2C RFO       ACCESS:      18272  HIT:      12661  MISS:       5611
L2C PREFETCH  ACCESS:    2117589  HIT:    2033468  MISS:      84121
L2C WRITEBACK ACCESS:      78948  HIT:      78469  MISS:        479
L2C PREFETCH  REQUESTED:    1322828  ISSUED:    1322759  USEFUL:       7223  USELESS:      76927
L2C AVERAGE MISS LATENCY: 119.12 cycles
LLC TOTAL     ACCESS:     429077  HIT:     285536  MISS:     143541
LLC LOAD      ACCESS:      81377  HIT:      30890  MISS:      50487
LLC RFO       ACCESS:       5611  HIT:       2576  MISS:       3035
LLC PREFETCH  ACCESS:     315785  HIT:     226230  MISS:      89555
LLC WRITEBACK ACCESS:      26304  HIT:      25840  MISS:        464
LLC PREFETCH  REQUESTED:          0  ISSUED:          0  USEFUL:      12985  USELESS:      76848
LLC AVERAGE MISS LATENCY: 159.748 cycles
Major fault: 0 Minor fault: 6365
CPU 0 L1D next line prefetcher final stats

DRAM Statistics
 CHANNEL 0
 RQ ROW_BUFFER_HIT:      32638  ROW_BUFFER_MISS:     110437
 DBUS_CONGESTED:      55516
 WQ ROW_BUFFER_HIT:       4460  ROW_BUFFER_MISS:      12983  FULL:          0

 AVG_CONGESTED_CYCLE: 4

CPU 0 Branch Prediction Accuracy: 98.7418% MPKI: 2.47758 Average ROB Occupancy at Mispredict: 79.7361

Branch types
NOT_BRANCH: 40154100 80.3082%
BRANCH_DIRECT_JUMP: 817094 1.63419%
BRANCH_INDIRECT: 303787 0.607574%
BRANCH_CONDITIONAL: 7492103 14.9842%
BRANCH_DIRECT_CALL: 471777 0.943554%
BRANCH_INDIRECT_CALL: 144546 0.289092%
BRANCH_RETURN: 616324 1.23265%
BRANCH_OTHER: 0 0%

