Initialize SIGNATURE TABLE
ST_SET: 1
ST_WAY: 256
ST_TAG_BIT: 16
ST_TAG_MASK: ffff

Initialize PATTERN TABLE
PT_SET: 512
PT_WAY: 4
SIG_DELTA_BIT: 7
C_SIG_BIT: 4
C_DELTA_BIT: 4

Initialize PREFETCH FILTER
FILTER_SET: 1024

*** ChampSim Multicore Out-of-Order Simulator ***

Warmup Instructions: 50000000
Simulation Instructions: 50000000
Number of CPUs: 1
LLC sets: 2048
LLC ways: 16
Off-chip DRAM Size: 4096 MB Channels: 1 Width: 64-bit Data Rate: 3200 MT/s

CPU 0 runs /Users/brandon/Documents/CoursesWi22/CSE240C/Homework1/ChampSim/ipc1_public/spec_gobmk_001.champsimtrace.xz
L1I D-JOLT instruction prefetcher has been constructed!
CPU 0 L1D next line prefetcher
Heartbeat CPU 0 instructions: 10000003 cycles: 3507080 heartbeat IPC: 2.85138 cumulative IPC: 2.85138 (Simulation time: 0 hr 1 min 21 sec) 
Heartbeat CPU 0 instructions: 20000002 cycles: 6987425 heartbeat IPC: 2.87328 cumulative IPC: 2.86229 (Simulation time: 0 hr 2 min 44 sec) 
Heartbeat CPU 0 instructions: 30000002 cycles: 10506214 heartbeat IPC: 2.84189 cumulative IPC: 2.85545 (Simulation time: 0 hr 4 min 8 sec) 
Heartbeat CPU 0 instructions: 40000001 cycles: 14025259 heartbeat IPC: 2.84168 cumulative IPC: 2.852 (Simulation time: 0 hr 5 min 31 sec) 
Heartbeat CPU 0 instructions: 50000001 cycles: 17565485 heartbeat IPC: 2.82468 cumulative IPC: 2.84649 (Simulation time: 0 hr 6 min 54 sec) 

Warmup complete CPU 0 instructions: 50000001 cycles: 17565485 (Simulation time: 0 hr 6 min 54 sec) 

Heartbeat CPU 0 instructions: 60000000 cycles: 26321288 heartbeat IPC: 1.1421 cumulative IPC: 1.1421 (Simulation time: 0 hr 7 min 57 sec) 
Heartbeat CPU 0 instructions: 70000002 cycles: 34707622 heartbeat IPC: 1.19242 cumulative IPC: 1.16672 (Simulation time: 0 hr 8 min 57 sec) 
Heartbeat CPU 0 instructions: 80000003 cycles: 43534502 heartbeat IPC: 1.1329 cumulative IPC: 1.15522 (Simulation time: 0 hr 10 min 0 sec) 
Heartbeat CPU 0 instructions: 90000001 cycles: 52025619 heartbeat IPC: 1.1777 cumulative IPC: 1.16076 (Simulation time: 0 hr 11 min 3 sec) 
Heartbeat CPU 0 instructions: 100000003 cycles: 60835292 heartbeat IPC: 1.13512 cumulative IPC: 1.15554 (Simulation time: 0 hr 12 min 8 sec) 
Finished CPU 0 instructions: 50000002 cycles: 43269807 cumulative IPC: 1.15554 (Simulation time: 0 hr 12 min 8 sec) 

ChampSim completed all CPUs

Region of Interest Statistics

CPU 0 cumulative IPC: 1.15554 instructions: 50000002 cycles: 43269807
L1D TOTAL     ACCESS:   17978293  HIT:   17598811  MISS:     379482
L1D LOAD      ACCESS:    7208599  HIT:    7072919  MISS:     135680
L1D RFO       ACCESS:    3700389  HIT:    3595842  MISS:     104547
L1D PREFETCH  ACCESS:    7069305  HIT:    6930050  MISS:     139255
L1D WRITEBACK ACCESS:          0  HIT:          0  MISS:          0
L1D PREFETCH  REQUESTED:    7214006  ISSUED:    7131316  USEFUL:      44580  USELESS:      94681
L1D AVERAGE MISS LATENCY: 32.9553 cycles
L1I TOTAL     ACCESS:   14405819  HIT:   12728142  MISS:    1677677
L1I LOAD      ACCESS:    8978009  HIT:    8935806  MISS:      42203
L1I RFO       ACCESS:          0  HIT:          0  MISS:          0
L1I PREFETCH  ACCESS:    5427810  HIT:    3792336  MISS:    1635474
L1I WRITEBACK ACCESS:          0  HIT:          0  MISS:          0
L1I PREFETCH  REQUESTED:    5604707  ISSUED:    5478355  USEFUL:     816498  USELESS:     818901
L1I AVERAGE MISS LATENCY: 15.2216 cycles
L2C TOTAL     ACCESS:    2954828  HIT:    2824938  MISS:     129890
L2C LOAD      ACCESS:     150596  HIT:     114756  MISS:      35840
L2C RFO       ACCESS:     104200  HIT:      70199  MISS:      34001
L2C PREFETCH  ACCESS:    2560738  HIT:    2500723  MISS:      60015
L2C WRITEBACK ACCESS:     139294  HIT:     139260  MISS:         34
L2C PREFETCH  REQUESTED:    1308686  ISSUED:    1308639  USEFUL:       5551  USELESS:      54869
L2C AVERAGE MISS LATENCY: 61.124 cycles
LLC TOTAL     ACCESS:     277291  HIT:     245216  MISS:      32075
LLC LOAD      ACCESS:      35838  HIT:      27805  MISS:       8033
LLC RFO       ACCESS:      34001  HIT:      29163  MISS:       4838
LLC PREFETCH  ACCESS:     162699  HIT:     143711  MISS:      18988
LLC WRITEBACK ACCESS:      44753  HIT:      44537  MISS:        216
LLC PREFETCH  REQUESTED:          0  ISSUED:          0  USEFUL:       1407  USELESS:      16306
LLC AVERAGE MISS LATENCY: 180.154 cycles
Major fault: 0 Minor fault: 4161
CPU 0 L1D next line prefetcher final stats

DRAM Statistics
 CHANNEL 0
 RQ ROW_BUFFER_HIT:       3262  ROW_BUFFER_MISS:      28593
 DBUS_CONGESTED:      16766
 WQ ROW_BUFFER_HIT:       1137  ROW_BUFFER_MISS:      13164  FULL:          0

 AVG_CONGESTED_CYCLE: 4

CPU 0 Branch Prediction Accuracy: 94.7729% MPKI: 9.72684 Average ROB Occupancy at Mispredict: 54.2497

Branch types
NOT_BRANCH: 40695383 81.3908%
BRANCH_DIRECT_JUMP: 422107 0.844214%
BRANCH_INDIRECT: 65 0.00013%
BRANCH_CONDITIONAL: 8105005 16.21%
BRANCH_DIRECT_CALL: 374913 0.749826%
BRANCH_INDIRECT_CALL: 13657 0.027314%
BRANCH_RETURN: 388556 0.777112%
BRANCH_OTHER: 0 0%

