Initialize SIGNATURE TABLE
ST_SET: 1
ST_WAY: 256
ST_TAG_BIT: 16
ST_TAG_MASK: ffff

Initialize PATTERN TABLE
PT_SET: 512
PT_WAY: 4
SIG_DELTA_BIT: 7
C_SIG_BIT: 4
C_DELTA_BIT: 4

Initialize PREFETCH FILTER
FILTER_SET: 1024

*** ChampSim Multicore Out-of-Order Simulator ***

Warmup Instructions: 50000000
Simulation Instructions: 50000000
Number of CPUs: 1
LLC sets: 2048
LLC ways: 16
Off-chip DRAM Size: 4096 MB Channels: 1 Width: 64-bit Data Rate: 3200 MT/s

CPU 0 runs /Users/brandon/Documents/CoursesWi22/CSE240C/Homework1/ChampSim/ipc1_public/spec_x264_001.champsimtrace.xz
L1I D-JOLT instruction prefetcher has been constructed!
CPU 0 L1D next line prefetcher
Heartbeat CPU 0 instructions: 10000002 cycles: 3059608 heartbeat IPC: 3.26839 cumulative IPC: 3.26839 (Simulation time: 0 hr 1 min 4 sec) 
Heartbeat CPU 0 instructions: 20000002 cycles: 6109296 heartbeat IPC: 3.27902 cumulative IPC: 3.2737 (Simulation time: 0 hr 2 min 9 sec) 
Heartbeat CPU 0 instructions: 30000002 cycles: 9144519 heartbeat IPC: 3.29465 cumulative IPC: 3.28065 (Simulation time: 0 hr 3 min 15 sec) 
Heartbeat CPU 0 instructions: 40000000 cycles: 12188566 heartbeat IPC: 3.2851 cumulative IPC: 3.28176 (Simulation time: 0 hr 4 min 20 sec) 
Heartbeat CPU 0 instructions: 50000000 cycles: 15231417 heartbeat IPC: 3.28639 cumulative IPC: 3.28269 (Simulation time: 0 hr 5 min 25 sec) 

Warmup complete CPU 0 instructions: 50000004 cycles: 15231418 (Simulation time: 0 hr 5 min 25 sec) 

Heartbeat CPU 0 instructions: 60000002 cycles: 21161214 heartbeat IPC: 1.6864 cumulative IPC: 1.6864 (Simulation time: 0 hr 6 min 1 sec) 
Heartbeat CPU 0 instructions: 70000000 cycles: 27071649 heartbeat IPC: 1.69192 cumulative IPC: 1.68916 (Simulation time: 0 hr 6 min 38 sec) 
Heartbeat CPU 0 instructions: 80000003 cycles: 33129911 heartbeat IPC: 1.65064 cumulative IPC: 1.67612 (Simulation time: 0 hr 7 min 15 sec) 
Heartbeat CPU 0 instructions: 90000000 cycles: 39166647 heartbeat IPC: 1.65652 cumulative IPC: 1.67118 (Simulation time: 0 hr 7 min 51 sec) 
Heartbeat CPU 0 instructions: 100000002 cycles: 45064540 heartbeat IPC: 1.69552 cumulative IPC: 1.67599 (Simulation time: 0 hr 8 min 27 sec) 
Finished CPU 0 instructions: 50000002 cycles: 29833123 cumulative IPC: 1.67599 (Simulation time: 0 hr 8 min 27 sec) 

ChampSim completed all CPUs

Region of Interest Statistics

CPU 0 cumulative IPC: 1.67599 instructions: 50000002 cycles: 29833123
L1D TOTAL     ACCESS:   12969765  HIT:   12808853  MISS:     160912
L1D LOAD      ACCESS:    5096037  HIT:    5040957  MISS:      55080
L1D RFO       ACCESS:    2883198  HIT:    2848870  MISS:      34328
L1D PREFETCH  ACCESS:    4990530  HIT:    4919026  MISS:      71504
L1D WRITEBACK ACCESS:          0  HIT:          0  MISS:          0
L1D PREFETCH  REQUESTED:    5112911  ISSUED:    5045207  USEFUL:      25723  USELESS:      45590
L1D AVERAGE MISS LATENCY: 40.026 cycles
L1I TOTAL     ACCESS:    9530419  HIT:    9124889  MISS:     405530
L1I LOAD      ACCESS:    8037668  HIT:    8030563  MISS:       7105
L1I RFO       ACCESS:          0  HIT:          0  MISS:          0
L1I PREFETCH  ACCESS:    1492751  HIT:    1094326  MISS:     398425
L1I WRITEBACK ACCESS:          0  HIT:          0  MISS:          0
L1I PREFETCH  REQUESTED:    1603427  ISSUED:    1582849  USEFUL:     301258  USELESS:      97205
L1I AVERAGE MISS LATENCY: 14.9836 cycles
L2C TOTAL     ACCESS:     871633  HIT:     832136  MISS:      39497
L2C LOAD      ACCESS:      60001  HIT:      54501  MISS:       5500
L2C RFO       ACCESS:      34143  HIT:      22033  MISS:      12110
L2C PREFETCH  ACCESS:     734389  HIT:     712573  MISS:      21816
L2C WRITEBACK ACCESS:      43100  HIT:      43029  MISS:         71
L2C PREFETCH  REQUESTED:     665616  ISSUED:     660651  USEFUL:       9029  USELESS:      13041
L2C AVERAGE MISS LATENCY: 102.193 cycles
LLC TOTAL     ACCESS:     126034  HIT:      97018  MISS:      29016
LLC LOAD      ACCESS:       5499  HIT:       3417  MISS:       2082
LLC RFO       ACCESS:      12110  HIT:        503  MISS:      11607
LLC PREFETCH  ACCESS:      94851  HIT:      79603  MISS:      15248
LLC WRITEBACK ACCESS:      13574  HIT:      13495  MISS:         79
LLC PREFETCH  REQUESTED:          0  ISSUED:          0  USEFUL:       1828  USELESS:      14097
LLC AVERAGE MISS LATENCY: 162.008 cycles
Major fault: 0 Minor fault: 1285
CPU 0 L1D next line prefetcher final stats

DRAM Statistics
 CHANNEL 0
 RQ ROW_BUFFER_HIT:       9960  ROW_BUFFER_MISS:      18977
 DBUS_CONGESTED:      12324
 WQ ROW_BUFFER_HIT:       2973  ROW_BUFFER_MISS:       9605  FULL:          0

 AVG_CONGESTED_CYCLE: 6

CPU 0 Branch Prediction Accuracy: 97.1633% MPKI: 1.73704 Average ROB Occupancy at Mispredict: 43.0603

Branch types
NOT_BRANCH: 46937921 93.8758%
BRANCH_DIRECT_JUMP: 170816 0.341632%
BRANCH_INDIRECT: 0 0%
BRANCH_CONDITIONAL: 2532774 5.06555%
BRANCH_DIRECT_CALL: 114227 0.228454%
BRANCH_INDIRECT_CALL: 64863 0.129726%
BRANCH_RETURN: 179089 0.358178%
BRANCH_OTHER: 0 0%

