Initialize SIGNATURE TABLE
ST_SET: 1
ST_WAY: 256
ST_TAG_BIT: 16
ST_TAG_MASK: ffff

Initialize PATTERN TABLE
PT_SET: 512
PT_WAY: 4
SIG_DELTA_BIT: 7
C_SIG_BIT: 4
C_DELTA_BIT: 4

Initialize PREFETCH FILTER
FILTER_SET: 1024

*** ChampSim Multicore Out-of-Order Simulator ***

Warmup Instructions: 50000000
Simulation Instructions: 50000000
Number of CPUs: 1
LLC sets: 2048
LLC ways: 16
Off-chip DRAM Size: 4096 MB Channels: 1 Width: 64-bit Data Rate: 3200 MT/s

CPU 0 runs /Users/brandon/Documents/CoursesWi22/CSE240C/Homework1/ChampSim/ipc1_public/client_002.champsimtrace.xz
L1I D-JOLT instruction prefetcher has been constructed!
CPU 0 L1D next line prefetcher
Heartbeat CPU 0 instructions: 10000000 cycles: 3404753 heartbeat IPC: 2.93707 cumulative IPC: 2.93707 (Simulation time: 0 hr 1 min 23 sec) 
Heartbeat CPU 0 instructions: 20000002 cycles: 6860022 heartbeat IPC: 2.89413 cumulative IPC: 2.91544 (Simulation time: 0 hr 3 min 0 sec) 
Heartbeat CPU 0 instructions: 30000001 cycles: 10292626 heartbeat IPC: 2.91324 cumulative IPC: 2.91471 (Simulation time: 0 hr 4 min 44 sec) 
Heartbeat CPU 0 instructions: 40000002 cycles: 13725053 heartbeat IPC: 2.91339 cumulative IPC: 2.91438 (Simulation time: 0 hr 6 min 30 sec) 
Heartbeat CPU 0 instructions: 50000002 cycles: 17165370 heartbeat IPC: 2.90671 cumulative IPC: 2.91284 (Simulation time: 0 hr 8 min 20 sec) 

Warmup complete CPU 0 instructions: 50000002 cycles: 17165370 (Simulation time: 0 hr 8 min 20 sec) 

Heartbeat CPU 0 instructions: 60000002 cycles: 23091098 heartbeat IPC: 1.68756 cumulative IPC: 1.68756 (Simulation time: 0 hr 10 min 1 sec) 
Heartbeat CPU 0 instructions: 70000001 cycles: 29064674 heartbeat IPC: 1.67404 cumulative IPC: 1.68077 (Simulation time: 0 hr 11 min 38 sec) 
Heartbeat CPU 0 instructions: 80000002 cycles: 34933065 heartbeat IPC: 1.70404 cumulative IPC: 1.68846 (Simulation time: 0 hr 13 min 20 sec) 
Heartbeat CPU 0 instructions: 90000000 cycles: 41377154 heartbeat IPC: 1.55181 cumulative IPC: 1.65209 (Simulation time: 0 hr 14 min 57 sec) 
Heartbeat CPU 0 instructions: 100000003 cycles: 47294267 heartbeat IPC: 1.69001 cumulative IPC: 1.65954 (Simulation time: 0 hr 16 min 28 sec) 
Finished CPU 0 instructions: 50000001 cycles: 30128897 cumulative IPC: 1.65954 (Simulation time: 0 hr 16 min 28 sec) 

ChampSim completed all CPUs

Region of Interest Statistics

CPU 0 cumulative IPC: 1.65954 instructions: 50000001 cycles: 30128897
L1D TOTAL     ACCESS:   19067113  HIT:   18727888  MISS:     339225
L1D LOAD      ACCESS:    6455201  HIT:    6337883  MISS:     117318
L1D RFO       ACCESS:    6417548  HIT:    6327590  MISS:      89958
L1D PREFETCH  ACCESS:    6194364  HIT:    6062415  MISS:     131949
L1D WRITEBACK ACCESS:          0  HIT:          0  MISS:          0
L1D PREFETCH  REQUESTED:    6465329  ISSUED:    6264301  USEFUL:      53216  USELESS:      78874
L1D AVERAGE MISS LATENCY: 49.5102 cycles
L1I TOTAL     ACCESS:   16043538  HIT:   14283789  MISS:    1759749
L1I LOAD      ACCESS:    9560244  HIT:    9517606  MISS:      42638
L1I RFO       ACCESS:          0  HIT:          0  MISS:          0
L1I PREFETCH  ACCESS:    6483294  HIT:    4766183  MISS:    1717111
L1I WRITEBACK ACCESS:          0  HIT:          0  MISS:          0
L1I PREFETCH  REQUESTED:    6788589  ISSUED:    6664744  USEFUL:     920564  USELESS:     796550
L1I AVERAGE MISS LATENCY: 16.5528 cycles
L2C TOTAL     ACCESS:    2963141  HIT:    2708607  MISS:     254534
L2C LOAD      ACCESS:     136068  HIT:      94059  MISS:      42009
L2C RFO       ACCESS:      88822  HIT:      22437  MISS:      66385
L2C PREFETCH  ACCESS:    2612748  HIT:    2467041  MISS:     145707
L2C WRITEBACK ACCESS:     125503  HIT:     125070  MISS:        433
L2C PREFETCH  REQUESTED:    1676643  ISSUED:    1675889  USEFUL:      12611  USELESS:     132474
L2C AVERAGE MISS LATENCY: 63.0124 cycles
LLC TOTAL     ACCESS:     726354  HIT:     653424  MISS:      72930
LLC LOAD      ACCESS:      42006  HIT:      35788  MISS:       6218
LLC RFO       ACCESS:      66384  HIT:      36756  MISS:      29628
LLC PREFETCH  ACCESS:     532858  HIT:     496041  MISS:      36817
LLC WRITEBACK ACCESS:      85106  HIT:      84839  MISS:        267
LLC PREFETCH  REQUESTED:          0  ISSUED:          0  USEFUL:       5953  USELESS:      30272
LLC AVERAGE MISS LATENCY: 177.719 cycles
Major fault: 0 Minor fault: 3095
CPU 0 L1D next line prefetcher final stats

DRAM Statistics
 CHANNEL 0
 RQ ROW_BUFFER_HIT:      23197  ROW_BUFFER_MISS:      49466
 DBUS_CONGESTED:      42606
 WQ ROW_BUFFER_HIT:       8672  ROW_BUFFER_MISS:      28336  FULL:          0

 AVG_CONGESTED_CYCLE: 6

CPU 0 Branch Prediction Accuracy: 99.2117% MPKI: 1.49752 Average ROB Occupancy at Mispredict: 118.967

Branch types
NOT_BRANCH: 40501616 81.0032%
BRANCH_DIRECT_JUMP: 517397 1.03479%
BRANCH_INDIRECT: 112348 0.224696%
BRANCH_CONDITIONAL: 6698737 13.3975%
BRANCH_DIRECT_CALL: 960974 1.92195%
BRANCH_INDIRECT_CALL: 123707 0.247414%
BRANCH_RETURN: 1084929 2.16986%
BRANCH_OTHER: 0 0%

