Initialize SIGNATURE TABLE
ST_SET: 1
ST_WAY: 256
ST_TAG_BIT: 16
ST_TAG_MASK: ffff

Initialize PATTERN TABLE
PT_SET: 512
PT_WAY: 4
SIG_DELTA_BIT: 7
C_SIG_BIT: 4
C_DELTA_BIT: 4

Initialize PREFETCH FILTER
FILTER_SET: 1024

*** ChampSim Multicore Out-of-Order Simulator ***

Warmup Instructions: 50000000
Simulation Instructions: 50000000
Number of CPUs: 1
LLC sets: 2048
LLC ways: 16
Off-chip DRAM Size: 4096 MB Channels: 1 Width: 64-bit Data Rate: 3200 MT/s

CPU 0 runs /Users/brandon/Documents/CoursesWi22/CSE240C/Homework1/ChampSim/ipc1_public/client_008.champsimtrace.xz
L1I D-JOLT instruction prefetcher has been constructed!
CPU 0 L1D next line prefetcher
Heartbeat CPU 0 instructions: 10000001 cycles: 3754922 heartbeat IPC: 2.66317 cumulative IPC: 2.66317 (Simulation time: 0 hr 1 min 33 sec) 
Heartbeat CPU 0 instructions: 20000001 cycles: 7532799 heartbeat IPC: 2.64699 cumulative IPC: 2.65506 (Simulation time: 0 hr 3 min 24 sec) 
Heartbeat CPU 0 instructions: 30000000 cycles: 11260844 heartbeat IPC: 2.68237 cumulative IPC: 2.6641 (Simulation time: 0 hr 5 min 22 sec) 
Heartbeat CPU 0 instructions: 40000002 cycles: 15057058 heartbeat IPC: 2.6342 cumulative IPC: 2.65656 (Simulation time: 0 hr 7 min 23 sec) 
Heartbeat CPU 0 instructions: 50000003 cycles: 18850807 heartbeat IPC: 2.63592 cumulative IPC: 2.65241 (Simulation time: 0 hr 9 min 32 sec) 

Warmup complete CPU 0 instructions: 50000003 cycles: 18850807 (Simulation time: 0 hr 9 min 32 sec) 

Heartbeat CPU 0 instructions: 60000000 cycles: 27035109 heartbeat IPC: 1.22185 cumulative IPC: 1.22185 (Simulation time: 0 hr 11 min 34 sec) 
Heartbeat CPU 0 instructions: 70000000 cycles: 34990197 heartbeat IPC: 1.25706 cumulative IPC: 1.2392 (Simulation time: 0 hr 13 min 51 sec) 
Heartbeat CPU 0 instructions: 80000001 cycles: 44107164 heartbeat IPC: 1.09686 cumulative IPC: 1.18782 (Simulation time: 0 hr 15 min 33 sec) 
Heartbeat CPU 0 instructions: 90000001 cycles: 51511854 heartbeat IPC: 1.3505 cumulative IPC: 1.2247 (Simulation time: 0 hr 16 min 48 sec) 
Heartbeat CPU 0 instructions: 100000001 cycles: 59553829 heartbeat IPC: 1.24348 cumulative IPC: 1.22841 (Simulation time: 0 hr 17 min 35 sec) 
Finished CPU 0 instructions: 50000002 cycles: 40703023 cumulative IPC: 1.22841 (Simulation time: 0 hr 17 min 35 sec) 

ChampSim completed all CPUs

Region of Interest Statistics

CPU 0 cumulative IPC: 1.22841 instructions: 50000002 cycles: 40703023
L1D TOTAL     ACCESS:   20479380  HIT:   18851025  MISS:    1628355
L1D LOAD      ACCESS:    8062131  HIT:    7262492  MISS:     799639
L1D RFO       ACCESS:    4813839  HIT:    4704313  MISS:     109526
L1D PREFETCH  ACCESS:    7603410  HIT:    6884220  MISS:     719190
L1D WRITEBACK ACCESS:          0  HIT:          0  MISS:          0
L1D PREFETCH  REQUESTED:    8131768  ISSUED:    7962955  USEFUL:     199456  USELESS:     519737
L1D AVERAGE MISS LATENCY: 33.1062 cycles
L1I TOTAL     ACCESS:   15832032  HIT:   14166006  MISS:    1666026
L1I LOAD      ACCESS:    9773674  HIT:    9721617  MISS:      52057
L1I RFO       ACCESS:          0  HIT:          0  MISS:          0
L1I PREFETCH  ACCESS:    6058358  HIT:    4444389  MISS:    1613969
L1I WRITEBACK ACCESS:          0  HIT:          0  MISS:          0
L1I PREFETCH  REQUESTED:    6666883  ISSUED:    6587723  USEFUL:     854301  USELESS:     759822
L1I AVERAGE MISS LATENCY: 16.9707 cycles
L2C TOTAL     ACCESS:    4619572  HIT:    4151290  MISS:     468282
L2C LOAD      ACCESS:     796118  HIT:     624723  MISS:     171395
L2C RFO       ACCESS:     104314  HIT:      18144  MISS:      86170
L2C PREFETCH  ACCESS:    3537147  HIT:    3326933  MISS:     210214
L2C WRITEBACK ACCESS:     181993  HIT:     181490  MISS:        503
L2C PREFETCH  REQUESTED:    3398556  ISSUED:    3363197  USEFUL:      20533  USELESS:     191545
L2C AVERAGE MISS LATENCY: 74.9412 cycles
LLC TOTAL     ACCESS:    1546975  HIT:    1364414  MISS:     182561
LLC LOAD      ACCESS:     171297  HIT:     148382  MISS:      22915
LLC RFO       ACCESS:      86168  HIT:      15647  MISS:      70521
LLC PREFETCH  ACCESS:    1153416  HIT:    1064625  MISS:      88791
LLC WRITEBACK ACCESS:     136094  HIT:     135760  MISS:        334
LLC PREFETCH  REQUESTED:          0  ISSUED:          0  USEFUL:      24582  USELESS:      71975
LLC AVERAGE MISS LATENCY: 167.679 cycles
Major fault: 0 Minor fault: 5306
CPU 0 L1D next line prefetcher final stats

DRAM Statistics
 CHANNEL 0
 RQ ROW_BUFFER_HIT:      51163  ROW_BUFFER_MISS:     131057
 DBUS_CONGESTED:      96692
 WQ ROW_BUFFER_HIT:      24160  ROW_BUFFER_MISS:      65578  FULL:          0

 AVG_CONGESTED_CYCLE: 6

CPU 0 Branch Prediction Accuracy: 98.6482% MPKI: 3.1551 Average ROB Occupancy at Mispredict: 96.8211

Branch types
NOT_BRANCH: 38329598 76.6592%
BRANCH_DIRECT_JUMP: 510116 1.02023%
BRANCH_INDIRECT: 225730 0.45146%
BRANCH_CONDITIONAL: 8366762 16.7335%
BRANCH_DIRECT_CALL: 600748 1.2015%
BRANCH_INDIRECT_CALL: 682990 1.36598%
BRANCH_RETURN: 1283974 2.56795%
BRANCH_OTHER: 0 0%

