Initialize SIGNATURE TABLE
ST_SET: 1
ST_WAY: 256
ST_TAG_BIT: 16
ST_TAG_MASK: ffff

Initialize PATTERN TABLE
PT_SET: 512
PT_WAY: 4
SIG_DELTA_BIT: 7
C_SIG_BIT: 4
C_DELTA_BIT: 4

Initialize PREFETCH FILTER
FILTER_SET: 1024

*** ChampSim Multicore Out-of-Order Simulator ***

Warmup Instructions: 50000000
Simulation Instructions: 50000000
Number of CPUs: 1
LLC sets: 2048
LLC ways: 16
Off-chip DRAM Size: 4096 MB Channels: 1 Width: 64-bit Data Rate: 3200 MT/s

CPU 0 runs /Users/brandon/Documents/CoursesWi22/CSE240C/Homework1/ChampSim/ipc1_public/client_003.champsimtrace.xz
L1I D-JOLT instruction prefetcher has been constructed!
CPU 0 L1D next line prefetcher
Heartbeat CPU 0 instructions: 10000000 cycles: 3478428 heartbeat IPC: 2.87486 cumulative IPC: 2.87486 (Simulation time: 0 hr 1 min 27 sec) 
Heartbeat CPU 0 instructions: 20000002 cycles: 6932690 heartbeat IPC: 2.89497 cumulative IPC: 2.88488 (Simulation time: 0 hr 3 min 8 sec) 
Heartbeat CPU 0 instructions: 30000003 cycles: 10493618 heartbeat IPC: 2.80826 cumulative IPC: 2.85888 (Simulation time: 0 hr 5 min 3 sec) 
Heartbeat CPU 0 instructions: 40000001 cycles: 14110091 heartbeat IPC: 2.76512 cumulative IPC: 2.83485 (Simulation time: 0 hr 6 min 59 sec) 
Heartbeat CPU 0 instructions: 50000003 cycles: 17655143 heartbeat IPC: 2.82083 cumulative IPC: 2.83204 (Simulation time: 0 hr 8 min 58 sec) 

Warmup complete CPU 0 instructions: 50000003 cycles: 17655143 (Simulation time: 0 hr 8 min 58 sec) 

Heartbeat CPU 0 instructions: 60000002 cycles: 24022016 heartbeat IPC: 1.57063 cumulative IPC: 1.57063 (Simulation time: 0 hr 10 min 42 sec) 
Heartbeat CPU 0 instructions: 70000001 cycles: 30113655 heartbeat IPC: 1.64159 cumulative IPC: 1.60533 (Simulation time: 0 hr 12 min 26 sec) 
Heartbeat CPU 0 instructions: 80000000 cycles: 37151376 heartbeat IPC: 1.42091 cumulative IPC: 1.53876 (Simulation time: 0 hr 14 min 9 sec) 
Heartbeat CPU 0 instructions: 90000000 cycles: 46035675 heartbeat IPC: 1.12558 cumulative IPC: 1.40942 (Simulation time: 0 hr 15 min 23 sec) 
Heartbeat CPU 0 instructions: 100000003 cycles: 56890570 heartbeat IPC: 0.921244 cumulative IPC: 1.27436 (Simulation time: 0 hr 16 min 41 sec) 
Finished CPU 0 instructions: 50000000 cycles: 39235427 cumulative IPC: 1.27436 (Simulation time: 0 hr 16 min 41 sec) 

ChampSim completed all CPUs

Region of Interest Statistics

CPU 0 cumulative IPC: 1.27436 instructions: 50000000 cycles: 39235427
L1D TOTAL     ACCESS:   17655669  HIT:   17159739  MISS:     495930
L1D LOAD      ACCESS:    6043125  HIT:    5918820  MISS:     124305
L1D RFO       ACCESS:    5944441  HIT:    5710038  MISS:     234403
L1D PREFETCH  ACCESS:    5668103  HIT:    5530881  MISS:     137222
L1D WRITEBACK ACCESS:          0  HIT:          0  MISS:          0
L1D PREFETCH  REQUESTED:    6084474  ISSUED:    5943442  USEFUL:      69340  USELESS:      67929
L1D AVERAGE MISS LATENCY: 121.652 cycles
L1I TOTAL     ACCESS:   15689055  HIT:   13844180  MISS:    1844875
L1I LOAD      ACCESS:    9494789  HIT:    9393593  MISS:     101196
L1I RFO       ACCESS:          0  HIT:          0  MISS:          0
L1I PREFETCH  ACCESS:    6194266  HIT:    4450587  MISS:    1743679
L1I WRITEBACK ACCESS:          0  HIT:          0  MISS:          0
L1I PREFETCH  REQUESTED:    6501204  ISSUED:    6303400  USEFUL:     723925  USELESS:    1019829
L1I AVERAGE MISS LATENCY: 16.9909 cycles
L2C TOTAL     ACCESS:    3352232  HIT:    2941934  MISS:     410298
L2C LOAD      ACCESS:     180696  HIT:     128737  MISS:      51959
L2C RFO       ACCESS:     232310  HIT:      24083  MISS:     208227
L2C PREFETCH  ACCESS:    2669954  HIT:    2521401  MISS:     148553
L2C WRITEBACK ACCESS:     269272  HIT:     267713  MISS:       1559
L2C PREFETCH  REQUESTED:    1674590  ISSUED:    1674440  USEFUL:      16685  USELESS:     131799
L2C AVERAGE MISS LATENCY: 158.77 cycles
LLC TOTAL     ACCESS:    1023979  HIT:     734930  MISS:     289049
LLC LOAD      ACCESS:      51858  HIT:      36149  MISS:      15709
LLC RFO       ACCESS:     208202  HIT:      35790  MISS:     172412
LLC PREFETCH  ACCESS:     537507  HIT:     436950  MISS:     100557
LLC WRITEBACK ACCESS:     226412  HIT:     226041  MISS:        371
LLC PREFETCH  REQUESTED:          0  ISSUED:          0  USEFUL:      12466  USELESS:      88119
LLC AVERAGE MISS LATENCY: 226.09 cycles
Major fault: 0 Minor fault: 5044
CPU 0 L1D next line prefetcher final stats

DRAM Statistics
 CHANNEL 0
 RQ ROW_BUFFER_HIT:      99903  ROW_BUFFER_MISS:     188770
 DBUS_CONGESTED:     256911
 WQ ROW_BUFFER_HIT:      59071  ROW_BUFFER_MISS:     119743  FULL:          0

 AVG_CONGESTED_CYCLE: 6

CPU 0 Branch Prediction Accuracy: 98.6631% MPKI: 2.66884 Average ROB Occupancy at Mispredict: 76.1939

Branch types
NOT_BRANCH: 40018764 80.0375%
BRANCH_DIRECT_JUMP: 370861 0.741722%
BRANCH_INDIRECT: 83252 0.166504%
BRANCH_CONDITIONAL: 7877434 15.7549%
BRANCH_DIRECT_CALL: 722315 1.44463%
BRANCH_INDIRECT_CALL: 101901 0.203802%
BRANCH_RETURN: 825355 1.65071%
BRANCH_OTHER: 0 0%

