Initialize SIGNATURE TABLE
ST_SET: 1
ST_WAY: 256
ST_TAG_BIT: 16
ST_TAG_MASK: ffff

Initialize PATTERN TABLE
PT_SET: 512
PT_WAY: 4
SIG_DELTA_BIT: 7
C_SIG_BIT: 4
C_DELTA_BIT: 4

Initialize PREFETCH FILTER
FILTER_SET: 1024

*** ChampSim Multicore Out-of-Order Simulator ***

Warmup Instructions: 50000000
Simulation Instructions: 50000000
Number of CPUs: 1
LLC sets: 2048
LLC ways: 16
Off-chip DRAM Size: 4096 MB Channels: 1 Width: 64-bit Data Rate: 3200 MT/s

CPU 0 runs /Users/brandon/Documents/CoursesWi22/CSE240C/Homework1/ChampSim/ipc1_public/client_004.champsimtrace.xz
L1I D-JOLT instruction prefetcher has been constructed!
CPU 0 L1D next line prefetcher
Heartbeat CPU 0 instructions: 10000000 cycles: 3592584 heartbeat IPC: 2.78351 cumulative IPC: 2.78351 (Simulation time: 0 hr 1 min 23 sec) 
Heartbeat CPU 0 instructions: 20000003 cycles: 7057086 heartbeat IPC: 2.88642 cumulative IPC: 2.83403 (Simulation time: 0 hr 2 min 55 sec) 
Heartbeat CPU 0 instructions: 30000000 cycles: 10647792 heartbeat IPC: 2.78497 cumulative IPC: 2.81749 (Simulation time: 0 hr 4 min 35 sec) 
Heartbeat CPU 0 instructions: 40000003 cycles: 14328318 heartbeat IPC: 2.717 cumulative IPC: 2.79167 (Simulation time: 0 hr 6 min 23 sec) 
Heartbeat CPU 0 instructions: 50000001 cycles: 17848277 heartbeat IPC: 2.84094 cumulative IPC: 2.80139 (Simulation time: 0 hr 8 min 14 sec) 

Warmup complete CPU 0 instructions: 50000001 cycles: 17848277 (Simulation time: 0 hr 8 min 14 sec) 

Heartbeat CPU 0 instructions: 60000002 cycles: 25873641 heartbeat IPC: 1.24605 cumulative IPC: 1.24605 (Simulation time: 0 hr 9 min 45 sec) 
Heartbeat CPU 0 instructions: 70000001 cycles: 33931296 heartbeat IPC: 1.24106 cumulative IPC: 1.24355 (Simulation time: 0 hr 11 min 18 sec) 
Heartbeat CPU 0 instructions: 80000002 cycles: 42938682 heartbeat IPC: 1.1102 cumulative IPC: 1.19568 (Simulation time: 0 hr 12 min 46 sec) 
Heartbeat CPU 0 instructions: 90000000 cycles: 51285812 heartbeat IPC: 1.19802 cumulative IPC: 1.19626 (Simulation time: 0 hr 14 min 19 sec) 
Heartbeat CPU 0 instructions: 100000001 cycles: 59449324 heartbeat IPC: 1.22496 cumulative IPC: 1.20189 (Simulation time: 0 hr 15 min 50 sec) 
Finished CPU 0 instructions: 50000000 cycles: 41601047 cumulative IPC: 1.20189 (Simulation time: 0 hr 15 min 50 sec) 

ChampSim completed all CPUs

Region of Interest Statistics

CPU 0 cumulative IPC: 1.20189 instructions: 50000000 cycles: 41601047
L1D TOTAL     ACCESS:   21974189  HIT:   21085252  MISS:     888937
L1D LOAD      ACCESS:    8727409  HIT:    8331576  MISS:     395833
L1D RFO       ACCESS:    4812374  HIT:    4691019  MISS:     121355
L1D PREFETCH  ACCESS:    8434406  HIT:    8062657  MISS:     371749
L1D WRITEBACK ACCESS:          0  HIT:          0  MISS:          0
L1D PREFETCH  REQUESTED:    8766723  ISSUED:    8607204  USEFUL:     133253  USELESS:     238504
L1D AVERAGE MISS LATENCY: 29.608 cycles
L1I TOTAL     ACCESS:   13719987  HIT:   12596080  MISS:    1123907
L1I LOAD      ACCESS:    9403144  HIT:    9249480  MISS:     153664
L1I RFO       ACCESS:          0  HIT:          0  MISS:          0
L1I PREFETCH  ACCESS:    4316843  HIT:    3346600  MISS:     970243
L1I WRITEBACK ACCESS:          0  HIT:          0  MISS:          0
L1I PREFETCH  REQUESTED:    4702989  ISSUED:    4612113  USEFUL:     520146  USELESS:     450145
L1I AVERAGE MISS LATENCY: 21.8385 cycles
L2C TOTAL     ACCESS:    3001728  HIT:    2701886  MISS:     299842
L2C LOAD      ACCESS:     519047  HIT:     428083  MISS:      90964
L2C RFO       ACCESS:     117362  HIT:      45145  MISS:      72217
L2C PREFETCH  ACCESS:    2143313  HIT:    2007374  MISS:     135939
L2C WRITEBACK ACCESS:     222006  HIT:     221284  MISS:        722
L2C PREFETCH  REQUESTED:    1667315  ISSUED:    1666325  USEFUL:      30304  USELESS:     105275
L2C AVERAGE MISS LATENCY: 75.3992 cycles
LLC TOTAL     ACCESS:     713149  HIT:     583664  MISS:     129485
LLC LOAD      ACCESS:      90942  HIT:      61639  MISS:      29303
LLC RFO       ACCESS:      72216  HIT:      41458  MISS:      30758
LLC PREFETCH  ACCESS:     448729  HIT:     379556  MISS:      69173
LLC WRITEBACK ACCESS:     101262  HIT:     101011  MISS:        251
LLC PREFETCH  REQUESTED:          0  ISSUED:          0  USEFUL:      25567  USELESS:      45874
LLC AVERAGE MISS LATENCY: 166.842 cycles
Major fault: 0 Minor fault: 3983
CPU 0 L1D next line prefetcher final stats

DRAM Statistics
 CHANNEL 0
 RQ ROW_BUFFER_HIT:      30899  ROW_BUFFER_MISS:      98318
 DBUS_CONGESTED:      54754
 WQ ROW_BUFFER_HIT:      10097  ROW_BUFFER_MISS:      33548  FULL:          0

 AVG_CONGESTED_CYCLE: 6

CPU 0 Branch Prediction Accuracy: 94.1242% MPKI: 11.6089 Average ROB Occupancy at Mispredict: 55.3002

Branch types
NOT_BRANCH: 40121075 80.2421%
BRANCH_DIRECT_JUMP: 644555 1.28911%
BRANCH_INDIRECT: 201946 0.403892%
BRANCH_CONDITIONAL: 7003556 14.0071%
BRANCH_DIRECT_CALL: 564821 1.12964%
BRANCH_INDIRECT_CALL: 445012 0.890024%
BRANCH_RETURN: 1018716 2.03743%
BRANCH_OTHER: 0 0%

