Initialize SIGNATURE TABLE
ST_SET: 1
ST_WAY: 256
ST_TAG_BIT: 16
ST_TAG_MASK: ffff

Initialize PATTERN TABLE
PT_SET: 512
PT_WAY: 4
SIG_DELTA_BIT: 7
C_SIG_BIT: 4
C_DELTA_BIT: 4

Initialize PREFETCH FILTER
FILTER_SET: 1024

*** ChampSim Multicore Out-of-Order Simulator ***

Warmup Instructions: 50000000
Simulation Instructions: 50000000
Number of CPUs: 1
LLC sets: 2048
LLC ways: 16
Off-chip DRAM Size: 4096 MB Channels: 1 Width: 64-bit Data Rate: 3200 MT/s

CPU 0 runs /Users/brandon/Documents/CoursesWi22/CSE240C/Homework1/ChampSim/ipc1_public/server_018.champsimtrace.xz
L1I D-JOLT instruction prefetcher has been constructed!
CPU 0 L1D next line prefetcher
Heartbeat CPU 0 instructions: 10000003 cycles: 3616699 heartbeat IPC: 2.76495 cumulative IPC: 2.76495 (Simulation time: 0 hr 1 min 31 sec) 
Heartbeat CPU 0 instructions: 20000001 cycles: 7238511 heartbeat IPC: 2.76105 cumulative IPC: 2.763 (Simulation time: 0 hr 3 min 18 sec) 
Heartbeat CPU 0 instructions: 30000003 cycles: 10714097 heartbeat IPC: 2.87721 cumulative IPC: 2.80005 (Simulation time: 0 hr 5 min 6 sec) 
Heartbeat CPU 0 instructions: 40000000 cycles: 14226527 heartbeat IPC: 2.84703 cumulative IPC: 2.81165 (Simulation time: 0 hr 6 min 59 sec) 
Heartbeat CPU 0 instructions: 50000003 cycles: 17844563 heartbeat IPC: 2.76393 cumulative IPC: 2.80197 (Simulation time: 0 hr 9 min 2 sec) 

Warmup complete CPU 0 instructions: 50000003 cycles: 17844563 (Simulation time: 0 hr 9 min 2 sec) 

Heartbeat CPU 0 instructions: 60000000 cycles: 35454960 heartbeat IPC: 0.567846 cumulative IPC: 0.567846 (Simulation time: 0 hr 11 min 46 sec) 
Heartbeat CPU 0 instructions: 70000001 cycles: 53052256 heartbeat IPC: 0.568269 cumulative IPC: 0.568058 (Simulation time: 0 hr 14 min 33 sec) 
Heartbeat CPU 0 instructions: 80000000 cycles: 70519917 heartbeat IPC: 0.572486 cumulative IPC: 0.569526 (Simulation time: 0 hr 16 min 52 sec) 
Heartbeat CPU 0 instructions: 90000002 cycles: 88072254 heartbeat IPC: 0.569725 cumulative IPC: 0.569576 (Simulation time: 0 hr 17 min 56 sec) 
Heartbeat CPU 0 instructions: 100000001 cycles: 105654669 heartbeat IPC: 0.56875 cumulative IPC: 0.569411 (Simulation time: 0 hr 18 min 37 sec) 
Finished CPU 0 instructions: 50000002 cycles: 87810108 cumulative IPC: 0.569411 (Simulation time: 0 hr 18 min 37 sec) 

ChampSim completed all CPUs

Region of Interest Statistics

CPU 0 cumulative IPC: 0.569411 instructions: 50000002 cycles: 87810108
L1D TOTAL     ACCESS:   18627980  HIT:   16410322  MISS:    2217658
L1D LOAD      ACCESS:    7043511  HIT:    6319147  MISS:     724364
L1D RFO       ACCESS:    5814788  HIT:    4862584  MISS:     952204
L1D PREFETCH  ACCESS:    5769681  HIT:    5228591  MISS:     541090
L1D WRITEBACK ACCESS:          0  HIT:          0  MISS:          0
L1D PREFETCH  REQUESTED:    7084519  ISSUED:    6881928  USEFUL:     201324  USELESS:     339855
L1D AVERAGE MISS LATENCY: 178.254 cycles
L1I TOTAL     ACCESS:   18558067  HIT:   15089849  MISS:    3468218
L1I LOAD      ACCESS:   10129797  HIT:   10080061  MISS:      49736
L1I RFO       ACCESS:          0  HIT:          0  MISS:          0
L1I PREFETCH  ACCESS:    8428270  HIT:    5009788  MISS:    3418482
L1I WRITEBACK ACCESS:          0  HIT:          0  MISS:          0
L1I PREFETCH  REQUESTED:    9009062  ISSUED:    8959718  USEFUL:    2721152  USELESS:     697231
L1I AVERAGE MISS LATENCY: 18.2074 cycles
L2C TOTAL     ACCESS:    8322011  HIT:    6454261  MISS:    1867750
L2C LOAD      ACCESS:     544123  HIT:     275996  MISS:     268127
L2C RFO       ACCESS:     951726  HIT:      21858  MISS:     929868
L2C PREFETCH  ACCESS:    5656131  HIT:    4989666  MISS:     666465
L2C WRITEBACK ACCESS:    1170031  HIT:    1166741  MISS:       3290
L2C PREFETCH  REQUESTED:    5174239  ISSUED:    5168127  USEFUL:      21721  USELESS:     645889
L2C AVERAGE MISS LATENCY: 217.423 cycles
LLC TOTAL     ACCESS:    4299411  HIT:    2825694  MISS:    1473717
LLC LOAD      ACCESS:     268072  HIT:     164619  MISS:     103453
LLC RFO       ACCESS:     929868  HIT:     134599  MISS:     795269
LLC PREFETCH  ACCESS:    1999819  HIT:    1426818  MISS:     573001
LLC WRITEBACK ACCESS:    1101652  HIT:    1099658  MISS:       1994
LLC PREFETCH  REQUESTED:          0  ISSUED:          0  USEFUL:      33862  USELESS:     539137
LLC AVERAGE MISS LATENCY: 285.074 cycles
Major fault: 0 Minor fault: 22446
CPU 0 L1D next line prefetcher final stats

DRAM Statistics
 CHANNEL 0
 RQ ROW_BUFFER_HIT:     415387  ROW_BUFFER_MISS:    1055971
 DBUS_CONGESTED:    1471543
 WQ ROW_BUFFER_HIT:     253133  ROW_BUFFER_MISS:     649100  FULL:          0

 AVG_CONGESTED_CYCLE: 6

CPU 0 Branch Prediction Accuracy: 99.7114% MPKI: 0.47678 Average ROB Occupancy at Mispredict: 212.952

Branch types
NOT_BRANCH: 41741002 83.482%
BRANCH_DIRECT_JUMP: 458652 0.917304%
BRANCH_INDIRECT: 48282 0.096564%
BRANCH_CONDITIONAL: 5930880 11.8618%
BRANCH_DIRECT_CALL: 744230 1.48846%
BRANCH_INDIRECT_CALL: 166336 0.332672%
BRANCH_RETURN: 910589 1.82118%
BRANCH_OTHER: 0 0%

