Initialize SIGNATURE TABLE
ST_SET: 1
ST_WAY: 256
ST_TAG_BIT: 16
ST_TAG_MASK: ffff

Initialize PATTERN TABLE
PT_SET: 512
PT_WAY: 4
SIG_DELTA_BIT: 7
C_SIG_BIT: 4
C_DELTA_BIT: 4

Initialize PREFETCH FILTER
FILTER_SET: 1024

*** ChampSim Multicore Out-of-Order Simulator ***

Warmup Instructions: 50000000
Simulation Instructions: 50000000
Number of CPUs: 1
LLC sets: 2048
LLC ways: 16
Off-chip DRAM Size: 4096 MB Channels: 1 Width: 64-bit Data Rate: 3200 MT/s

CPU 0 runs /Users/brandon/Documents/CoursesWi22/CSE240C/Homework1/ChampSim/ipc1_public/server_014.champsimtrace.xz
L1I D-JOLT instruction prefetcher has been constructed!
CPU 0 L1D next line prefetcher
Heartbeat CPU 0 instructions: 10000003 cycles: 3519559 heartbeat IPC: 2.84127 cumulative IPC: 2.84127 (Simulation time: 0 hr 1 min 27 sec) 
Heartbeat CPU 0 instructions: 20000000 cycles: 7106472 heartbeat IPC: 2.78791 cumulative IPC: 2.81434 (Simulation time: 0 hr 3 min 13 sec) 
Heartbeat CPU 0 instructions: 30000001 cycles: 10647992 heartbeat IPC: 2.82365 cumulative IPC: 2.81743 (Simulation time: 0 hr 5 min 8 sec) 
Heartbeat CPU 0 instructions: 40000003 cycles: 14196214 heartbeat IPC: 2.81831 cumulative IPC: 2.81765 (Simulation time: 0 hr 7 min 5 sec) 
Heartbeat CPU 0 instructions: 50000000 cycles: 17744888 heartbeat IPC: 2.81795 cumulative IPC: 2.81771 (Simulation time: 0 hr 9 min 7 sec) 

Warmup complete CPU 0 instructions: 50000001 cycles: 17744889 (Simulation time: 0 hr 9 min 7 sec) 

Heartbeat CPU 0 instructions: 60000000 cycles: 24032739 heartbeat IPC: 1.59037 cumulative IPC: 1.59037 (Simulation time: 0 hr 11 min 13 sec) 
Heartbeat CPU 0 instructions: 70000003 cycles: 30325505 heartbeat IPC: 1.58913 cumulative IPC: 1.58975 (Simulation time: 0 hr 13 min 18 sec) 
*** Reached end of trace for Core: 0 Repeating trace: /Users/brandon/Documents/CoursesWi22/CSE240C/Homework1/ChampSim/ipc1_public/server_014.champsimtrace.xz
Heartbeat CPU 0 instructions: 80000001 cycles: 36895780 heartbeat IPC: 1.52201 cumulative IPC: 1.56651 (Simulation time: 0 hr 15 min 22 sec) 
Heartbeat CPU 0 instructions: 90000003 cycles: 44357897 heartbeat IPC: 1.3401 cumulative IPC: 1.50302 (Simulation time: 0 hr 16 min 57 sec) 
Heartbeat CPU 0 instructions: 100000001 cycles: 50843977 heartbeat IPC: 1.54176 cumulative IPC: 1.51062 (Simulation time: 0 hr 17 min 49 sec) 
Finished CPU 0 instructions: 50000000 cycles: 33099088 cumulative IPC: 1.51062 (Simulation time: 0 hr 17 min 49 sec) 

ChampSim completed all CPUs

Region of Interest Statistics

CPU 0 cumulative IPC: 1.51062 instructions: 50000000 cycles: 33099088
L1D TOTAL     ACCESS:   21634997  HIT:   21564136  MISS:      70861
L1D LOAD      ACCESS:    6677742  HIT:    6650806  MISS:      26936
L1D RFO       ACCESS:    8412751  HIT:    8380687  MISS:      32064
L1D PREFETCH  ACCESS:    6544504  HIT:    6532643  MISS:      11861
L1D WRITEBACK ACCESS:          0  HIT:          0  MISS:          0
L1D PREFETCH  REQUESTED:    6682077  ISSUED:    6572082  USEFUL:       3305  USELESS:       8556
L1D AVERAGE MISS LATENCY: 223.521 cycles
L1I TOTAL     ACCESS:   19846205  HIT:   15649800  MISS:    4196405
L1I LOAD      ACCESS:    9801352  HIT:    9760532  MISS:      40820
L1I RFO       ACCESS:          0  HIT:          0  MISS:          0
L1I PREFETCH  ACCESS:   10044853  HIT:    5889268  MISS:    4155585
L1I WRITEBACK ACCESS:          0  HIT:          0  MISS:          0
L1I PREFETCH  REQUESTED:   10656409  ISSUED:   10375749  USEFUL:    2755384  USELESS:    1400171
L1I AVERAGE MISS LATENCY: 14.9698 cycles
L2C TOTAL     ACCESS:    6121599  HIT:    6049868  MISS:      71731
L2C LOAD      ACCESS:      61279  HIT:      42024  MISS:      19255
L2C RFO       ACCESS:      32021  HIT:       1085  MISS:      30936
L2C PREFETCH  ACCESS:    5989931  HIT:    5968406  MISS:      21525
L2C WRITEBACK ACCESS:      38368  HIT:      38353  MISS:         15
L2C PREFETCH  REQUESTED:    4596089  ISSUED:    4589786  USEFUL:       1616  USELESS:      19875
L2C AVERAGE MISS LATENCY: 251.651 cycles
LLC TOTAL     ACCESS:    1017762  HIT:     953097  MISS:      64665
LLC LOAD      ACCESS:      18089  HIT:       5502  MISS:      12587
LLC RFO       ACCESS:      30936  HIT:       5320  MISS:      25616
LLC PREFETCH  ACCESS:     933903  HIT:     907563  MISS:      26340
LLC WRITEBACK ACCESS:      34834  HIT:      34712  MISS:        122
LLC PREFETCH  REQUESTED:          0  ISSUED:          0  USEFUL:       4658  USELESS:      22716
LLC AVERAGE MISS LATENCY: 309.309 cycles
Major fault: 0 Minor fault: 1917
CPU 0 L1D next line prefetcher final stats

DRAM Statistics
 CHANNEL 0
 RQ ROW_BUFFER_HIT:      28757  ROW_BUFFER_MISS:      35781
 DBUS_CONGESTED:      64754
 WQ ROW_BUFFER_HIT:       8241  ROW_BUFFER_MISS:      23413  FULL:          0

 AVG_CONGESTED_CYCLE: 6

CPU 0 Branch Prediction Accuracy: 99.7719% MPKI: 0.38824 Average ROB Occupancy at Mispredict: 155.442

Branch types
NOT_BRANCH: 41489014 82.978%
BRANCH_DIRECT_JUMP: 449417 0.898834%
BRANCH_INDIRECT: 2330 0.00466%
BRANCH_CONDITIONAL: 5470016 10.94%
BRANCH_DIRECT_CALL: 1172188 2.34438%
BRANCH_INDIRECT_CALL: 122383 0.244766%
BRANCH_RETURN: 1294554 2.58911%
BRANCH_OTHER: 0 0%

