Initialize SIGNATURE TABLE
ST_SET: 1
ST_WAY: 256
ST_TAG_BIT: 16
ST_TAG_MASK: ffff

Initialize PATTERN TABLE
PT_SET: 512
PT_WAY: 4
SIG_DELTA_BIT: 7
C_SIG_BIT: 4
C_DELTA_BIT: 4

Initialize PREFETCH FILTER
FILTER_SET: 1024

*** ChampSim Multicore Out-of-Order Simulator ***

Warmup Instructions: 50000000
Simulation Instructions: 50000000
Number of CPUs: 1
LLC sets: 2048
LLC ways: 16
Off-chip DRAM Size: 4096 MB Channels: 1 Width: 64-bit Data Rate: 3200 MT/s

CPU 0 runs /Users/brandon/Documents/CoursesWi22/CSE240C/Homework1/ChampSim/ipc1_public/server_023.champsimtrace.xz
L1I D-JOLT instruction prefetcher has been constructed!
CPU 0 L1D next line prefetcher
Heartbeat CPU 0 instructions: 10000000 cycles: 3497967 heartbeat IPC: 2.8588 cumulative IPC: 2.8588 (Simulation time: 0 hr 1 min 47 sec) 
Heartbeat CPU 0 instructions: 20000000 cycles: 6995511 heartbeat IPC: 2.85915 cumulative IPC: 2.85898 (Simulation time: 0 hr 3 min 37 sec) 
Heartbeat CPU 0 instructions: 30000001 cycles: 10486236 heartbeat IPC: 2.86473 cumulative IPC: 2.86089 (Simulation time: 0 hr 5 min 25 sec) 
Heartbeat CPU 0 instructions: 40000003 cycles: 13983289 heartbeat IPC: 2.85955 cumulative IPC: 2.86056 (Simulation time: 0 hr 7 min 14 sec) 
Heartbeat CPU 0 instructions: 50000001 cycles: 17481528 heartbeat IPC: 2.85858 cumulative IPC: 2.86016 (Simulation time: 0 hr 9 min 4 sec) 

Warmup complete CPU 0 instructions: 50000001 cycles: 17481528 (Simulation time: 0 hr 9 min 4 sec) 

Heartbeat CPU 0 instructions: 60000002 cycles: 24240257 heartbeat IPC: 1.47957 cumulative IPC: 1.47957 (Simulation time: 0 hr 10 min 55 sec) 
Heartbeat CPU 0 instructions: 70000002 cycles: 31201228 heartbeat IPC: 1.43658 cumulative IPC: 1.45776 (Simulation time: 0 hr 12 min 34 sec) 
Heartbeat CPU 0 instructions: 80000000 cycles: 38069684 heartbeat IPC: 1.45593 cumulative IPC: 1.45715 (Simulation time: 0 hr 14 min 12 sec) 
Heartbeat CPU 0 instructions: 90000000 cycles: 44975926 heartbeat IPC: 1.44797 cumulative IPC: 1.45484 (Simulation time: 0 hr 15 min 30 sec) 
Heartbeat CPU 0 instructions: 100000001 cycles: 51815657 heartbeat IPC: 1.46205 cumulative IPC: 1.45628 (Simulation time: 0 hr 16 min 52 sec) 
Finished CPU 0 instructions: 50000000 cycles: 34334129 cumulative IPC: 1.45628 (Simulation time: 0 hr 16 min 52 sec) 

ChampSim completed all CPUs

Region of Interest Statistics

CPU 0 cumulative IPC: 1.45628 instructions: 50000000 cycles: 34334129
L1D TOTAL     ACCESS:   19337295  HIT:   17870526  MISS:    1466769
L1D LOAD      ACCESS:    6839808  HIT:    6179045  MISS:     660763
L1D RFO       ACCESS:    5981725  HIT:    5720013  MISS:     261712
L1D PREFETCH  ACCESS:    6515762  HIT:    5971468  MISS:     544294
L1D WRITEBACK ACCESS:          0  HIT:          0  MISS:          0
L1D PREFETCH  REQUESTED:    6890695  ISSUED:    6768419  USEFUL:     129784  USELESS:     414519
L1D AVERAGE MISS LATENCY: 25.3446 cycles
L1I TOTAL     ACCESS:   15191668  HIT:   12266205  MISS:    2925463
L1I LOAD      ACCESS:    9453705  HIT:    9406994  MISS:      46711
L1I RFO       ACCESS:          0  HIT:          0  MISS:          0
L1I PREFETCH  ACCESS:    5737963  HIT:    2859211  MISS:    2878752
L1I WRITEBACK ACCESS:          0  HIT:          0  MISS:          0
L1I PREFETCH  REQUESTED:    6071314  ISSUED:    5993943  USEFUL:    2404192  USELESS:     474546
L1I AVERAGE MISS LATENCY: 19.9222 cycles
L2C TOTAL     ACCESS:    6119997  HIT:    5287713  MISS:     832284
L2C LOAD      ACCESS:     642341  HIT:     500624  MISS:     141717
L2C RFO       ACCESS:     259535  HIT:     172846  MISS:      86689
L2C PREFETCH  ACCESS:    4718865  HIT:    4121284  MISS:     597581
L2C WRITEBACK ACCESS:     499256  HIT:     492959  MISS:       6297
L2C PREFETCH  REQUESTED:    4208468  ISSUED:    4202131  USEFUL:      14980  USELESS:     582803
L2C AVERAGE MISS LATENCY: 39.858 cycles
LLC TOTAL     ACCESS:    2111315  HIT:    2060778  MISS:      50537
LLC LOAD      ACCESS:     141490  HIT:     135264  MISS:       6226
LLC RFO       ACCESS:      86666  HIT:      68679  MISS:      17987
LLC PREFETCH  ACCESS:    1734577  HIT:    1708553  MISS:      26024
LLC WRITEBACK ACCESS:     148582  HIT:     148282  MISS:        300
LLC PREFETCH  REQUESTED:          0  ISSUED:          0  USEFUL:       2342  USELESS:      23908
LLC AVERAGE MISS LATENCY: 182.708 cycles
Major fault: 0 Minor fault: 2775
CPU 0 L1D next line prefetcher final stats

DRAM Statistics
 CHANNEL 0
 RQ ROW_BUFFER_HIT:      15240  ROW_BUFFER_MISS:      34986
 DBUS_CONGESTED:      31722
 WQ ROW_BUFFER_HIT:       2432  ROW_BUFFER_MISS:      19022  FULL:          0

 AVG_CONGESTED_CYCLE: 6

CPU 0 Branch Prediction Accuracy: 99.6798% MPKI: 0.58608 Average ROB Occupancy at Mispredict: 147.423

Branch types
NOT_BRANCH: 40848341 81.6967%
BRANCH_DIRECT_JUMP: 548373 1.09675%
BRANCH_INDIRECT: 189802 0.379604%
BRANCH_CONDITIONAL: 6372772 12.7455%
BRANCH_DIRECT_CALL: 862207 1.72441%
BRANCH_INDIRECT_CALL: 158149 0.316298%
BRANCH_RETURN: 1020345 2.04069%
BRANCH_OTHER: 0 0%

