Initialize SIGNATURE TABLE
ST_SET: 1
ST_WAY: 256
ST_TAG_BIT: 16
ST_TAG_MASK: ffff

Initialize PATTERN TABLE
PT_SET: 512
PT_WAY: 4
SIG_DELTA_BIT: 7
C_SIG_BIT: 4
C_DELTA_BIT: 4

Initialize PREFETCH FILTER
FILTER_SET: 1024

*** ChampSim Multicore Out-of-Order Simulator ***

Warmup Instructions: 50000000
Simulation Instructions: 50000000
Number of CPUs: 1
LLC sets: 2048
LLC ways: 16
Off-chip DRAM Size: 4096 MB Channels: 1 Width: 64-bit Data Rate: 3200 MT/s

CPU 0 runs /Users/brandon/Documents/CoursesWi22/CSE240C/Homework1/ChampSim/ipc1_public/server_004.champsimtrace.xz
L1I D-JOLT instruction prefetcher has been constructed!
CPU 0 L1D next line prefetcher
Heartbeat CPU 0 instructions: 10000002 cycles: 3226617 heartbeat IPC: 3.09922 cumulative IPC: 3.09922 (Simulation time: 0 hr 1 min 24 sec) 
Heartbeat CPU 0 instructions: 20000002 cycles: 6560154 heartbeat IPC: 2.99982 cumulative IPC: 3.04871 (Simulation time: 0 hr 3 min 0 sec) 
Heartbeat CPU 0 instructions: 30000000 cycles: 11677276 heartbeat IPC: 1.95422 cumulative IPC: 2.56909 (Simulation time: 0 hr 5 min 9 sec) 
Heartbeat CPU 0 instructions: 40000003 cycles: 15423798 heartbeat IPC: 2.66914 cumulative IPC: 2.5934 (Simulation time: 0 hr 7 min 2 sec) 
Heartbeat CPU 0 instructions: 50000003 cycles: 18650665 heartbeat IPC: 3.09898 cumulative IPC: 2.68087 (Simulation time: 0 hr 8 min 54 sec) 

Warmup complete CPU 0 instructions: 50000003 cycles: 18650665 (Simulation time: 0 hr 8 min 54 sec) 

Heartbeat CPU 0 instructions: 60000002 cycles: 27275242 heartbeat IPC: 1.15948 cumulative IPC: 1.15948 (Simulation time: 0 hr 10 min 41 sec) 
Heartbeat CPU 0 instructions: 70000000 cycles: 35333992 heartbeat IPC: 1.24089 cumulative IPC: 1.1988 (Simulation time: 0 hr 12 min 22 sec) 
Heartbeat CPU 0 instructions: 80000001 cycles: 56257231 heartbeat IPC: 0.477938 cumulative IPC: 0.797733 (Simulation time: 0 hr 15 min 13 sec) 
Heartbeat CPU 0 instructions: 90000003 cycles: 71527734 heartbeat IPC: 0.654857 cumulative IPC: 0.756472 (Simulation time: 0 hr 16 min 49 sec) 
Heartbeat CPU 0 instructions: 100000003 cycles: 80277272 heartbeat IPC: 1.14292 cumulative IPC: 0.811338 (Simulation time: 0 hr 17 min 36 sec) 
Finished CPU 0 instructions: 50000000 cycles: 61626607 cumulative IPC: 0.811338 (Simulation time: 0 hr 17 min 36 sec) 

ChampSim completed all CPUs

Region of Interest Statistics

CPU 0 cumulative IPC: 0.811338 instructions: 50000000 cycles: 61626607
L1D TOTAL     ACCESS:   21636265  HIT:   17565250  MISS:    4071015
L1D LOAD      ACCESS:    8601889  HIT:    6583480  MISS:    2018409
L1D RFO       ACCESS:    4642441  HIT:    4535701  MISS:     106740
L1D PREFETCH  ACCESS:    8391935  HIT:    6446069  MISS:    1945866
L1D WRITEBACK ACCESS:          0  HIT:          0  MISS:          0
L1D PREFETCH  REQUESTED:    8636589  ISSUED:    8547530  USEFUL:     106278  USELESS:    1839583
L1D AVERAGE MISS LATENCY: 22.995 cycles
L1I TOTAL     ACCESS:   16753528  HIT:   15155325  MISS:    1598203
L1I LOAD      ACCESS:   10722942  HIT:   10604589  MISS:     118353
L1I RFO       ACCESS:          0  HIT:          0  MISS:          0
L1I PREFETCH  ACCESS:    6030586  HIT:    4550736  MISS:    1479850
L1I WRITEBACK ACCESS:          0  HIT:          0  MISS:          0
L1I PREFETCH  REQUESTED:    6536963  ISSUED:    6286557  USEFUL:    1048787  USELESS:     430936
L1I AVERAGE MISS LATENCY: 33.6758 cycles
L2C TOTAL     ACCESS:    7292882  HIT:    6219813  MISS:    1073069
L2C LOAD      ACCESS:    2086131  HIT:    1830904  MISS:     255227
L2C RFO       ACCESS:     105556  HIT:      56999  MISS:      48557
L2C PREFETCH  ACCESS:    4856159  HIT:    4088187  MISS:     767972
L2C WRITEBACK ACCESS:     245036  HIT:     243723  MISS:       1313
L2C PREFETCH  REQUESTED:    5865491  ISSUED:    5863441  USEFUL:      27345  USELESS:     740757
L2C AVERAGE MISS LATENCY: 57.647 cycles
LLC TOTAL     ACCESS:    2352686  HIT:    2112193  MISS:     240493
LLC LOAD      ACCESS:     254822  HIT:     208810  MISS:      46012
LLC RFO       ACCESS:      48557  HIT:      33870  MISS:      14687
LLC PREFETCH  ACCESS:    1908812  HIT:    1729345  MISS:     179467
LLC WRITEBACK ACCESS:     140495  HIT:     140168  MISS:        327
LLC PREFETCH  REQUESTED:          0  ISSUED:          0  USEFUL:      22264  USELESS:     157966
LLC AVERAGE MISS LATENCY: 175.214 cycles
Major fault: 0 Minor fault: 7602
CPU 0 L1D next line prefetcher final stats

DRAM Statistics
 CHANNEL 0
 RQ ROW_BUFFER_HIT:      47058  ROW_BUFFER_MISS:     193079
 DBUS_CONGESTED:      95000
 WQ ROW_BUFFER_HIT:      11357  ROW_BUFFER_MISS:      42327  FULL:          0

 AVG_CONGESTED_CYCLE: 5

CPU 0 Branch Prediction Accuracy: 98.1603% MPKI: 3.89124 Average ROB Occupancy at Mispredict: 65.6327

Branch types
NOT_BRANCH: 39423755 78.8475%
BRANCH_DIRECT_JUMP: 551642 1.10328%
BRANCH_INDIRECT: 139368 0.278736%
BRANCH_CONDITIONAL: 7920858 15.8417%
BRANCH_DIRECT_CALL: 776072 1.55214%
BRANCH_INDIRECT_CALL: 194644 0.389288%
BRANCH_RETURN: 993311 1.98662%
BRANCH_OTHER: 0 0%

