Initialize SIGNATURE TABLE
ST_SET: 1
ST_WAY: 256
ST_TAG_BIT: 16
ST_TAG_MASK: ffff

Initialize PATTERN TABLE
PT_SET: 512
PT_WAY: 4
SIG_DELTA_BIT: 7
C_SIG_BIT: 4
C_DELTA_BIT: 4

Initialize PREFETCH FILTER
FILTER_SET: 1024

*** ChampSim Multicore Out-of-Order Simulator ***

Warmup Instructions: 50000000
Simulation Instructions: 50000000
Number of CPUs: 1
LLC sets: 2048
LLC ways: 16
Off-chip DRAM Size: 4096 MB Channels: 1 Width: 64-bit Data Rate: 3200 MT/s

CPU 0 runs /Users/brandon/Documents/CoursesWi22/CSE240C/Homework1/ChampSim/ipc1_public/server_001.champsimtrace.xz
L1I D-JOLT instruction prefetcher has been constructed!
CPU 0 L1D next line prefetcher
Heartbeat CPU 0 instructions: 10000002 cycles: 3154780 heartbeat IPC: 3.16979 cumulative IPC: 3.16979 (Simulation time: 0 hr 1 min 19 sec) 
Heartbeat CPU 0 instructions: 20000000 cycles: 6369032 heartbeat IPC: 3.11114 cumulative IPC: 3.14019 (Simulation time: 0 hr 2 min 53 sec) 
Heartbeat CPU 0 instructions: 30000003 cycles: 9554673 heartbeat IPC: 3.13909 cumulative IPC: 3.13983 (Simulation time: 0 hr 4 min 34 sec) 
Heartbeat CPU 0 instructions: 40000002 cycles: 12761817 heartbeat IPC: 3.11804 cumulative IPC: 3.13435 (Simulation time: 0 hr 6 min 18 sec) 
Heartbeat CPU 0 instructions: 50000003 cycles: 15980466 heartbeat IPC: 3.10689 cumulative IPC: 3.12882 (Simulation time: 0 hr 8 min 1 sec) 

Warmup complete CPU 0 instructions: 50000003 cycles: 15980466 (Simulation time: 0 hr 8 min 1 sec) 

Heartbeat CPU 0 instructions: 60000000 cycles: 23060695 heartbeat IPC: 1.41238 cumulative IPC: 1.41238 (Simulation time: 0 hr 9 min 42 sec) 
Heartbeat CPU 0 instructions: 70000001 cycles: 29904877 heartbeat IPC: 1.4611 cumulative IPC: 1.43633 (Simulation time: 0 hr 11 min 21 sec) 
Heartbeat CPU 0 instructions: 80000002 cycles: 36722463 heartbeat IPC: 1.46679 cumulative IPC: 1.44634 (Simulation time: 0 hr 13 min 0 sec) 
Heartbeat CPU 0 instructions: 90000002 cycles: 43830052 heartbeat IPC: 1.40695 cumulative IPC: 1.43629 (Simulation time: 0 hr 14 min 43 sec) 
Heartbeat CPU 0 instructions: 100000003 cycles: 50554299 heartbeat IPC: 1.48716 cumulative IPC: 1.44618 (Simulation time: 0 hr 16 min 16 sec) 
Finished CPU 0 instructions: 50000000 cycles: 34573833 cumulative IPC: 1.44618 (Simulation time: 0 hr 16 min 16 sec) 

ChampSim completed all CPUs

Region of Interest Statistics

CPU 0 cumulative IPC: 1.44618 instructions: 50000000 cycles: 34573833
L1D TOTAL     ACCESS:   17592250  HIT:   17081130  MISS:     511120
L1D LOAD      ACCESS:    6432542  HIT:    6227484  MISS:     205058
L1D RFO       ACCESS:    5051952  HIT:    4969257  MISS:      82695
L1D PREFETCH  ACCESS:    6107756  HIT:    5884389  MISS:     223367
L1D WRITEBACK ACCESS:          0  HIT:          0  MISS:          0
L1D PREFETCH  REQUESTED:    6461877  ISSUED:    6284804  USEFUL:     131647  USELESS:      91848
L1D AVERAGE MISS LATENCY: 95.4482 cycles
L1I TOTAL     ACCESS:   15514560  HIT:   14459691  MISS:    1054869
L1I LOAD      ACCESS:    8257302  HIT:    8230517  MISS:      26785
L1I RFO       ACCESS:          0  HIT:          0  MISS:          0
L1I PREFETCH  ACCESS:    7257258  HIT:    6229174  MISS:    1028084
L1I WRITEBACK ACCESS:          0  HIT:          0  MISS:          0
L1I PREFETCH  REQUESTED:    7532998  ISSUED:    7374026  USEFUL:     742192  USELESS:     285830
L1I AVERAGE MISS LATENCY: 29.9799 cycles
L2C TOTAL     ACCESS:    2424406  HIT:    1944668  MISS:     479738
L2C LOAD      ACCESS:     182362  HIT:      87626  MISS:      94736
L2C RFO       ACCESS:      80901  HIT:      10314  MISS:      70587
L2C PREFETCH  ACCESS:    1953280  HIT:    1639379  MISS:     313901
L2C WRITEBACK ACCESS:     207863  HIT:     207349  MISS:        514
L2C PREFETCH  REQUESTED:    2265427  ISSUED:    2261852  USEFUL:      21976  USELESS:     292210
L2C AVERAGE MISS LATENCY: 125.571 cycles
LLC TOTAL     ACCESS:    1250759  HIT:     915315  MISS:     335444
LLC LOAD      ACCESS:      94629  HIT:      63120  MISS:      31509
LLC RFO       ACCESS:      70586  HIT:       6781  MISS:      63805
LLC PREFETCH  ACCESS:     917780  HIT:     677938  MISS:     239842
LLC WRITEBACK ACCESS:     167764  HIT:     167476  MISS:        288
LLC PREFETCH  REQUESTED:          0  ISSUED:          0  USEFUL:      27411  USELESS:     208868
LLC AVERAGE MISS LATENCY: 229.969 cycles
Major fault: 0 Minor fault: 16709
CPU 0 L1D next line prefetcher final stats

DRAM Statistics
 CHANNEL 0
 RQ ROW_BUFFER_HIT:     102176  ROW_BUFFER_MISS:     232946
 DBUS_CONGESTED:     228616
 WQ ROW_BUFFER_HIT:      36008  ROW_BUFFER_MISS:     122901  FULL:          0

 AVG_CONGESTED_CYCLE: 6

CPU 0 Branch Prediction Accuracy: 99.5889% MPKI: 0.70108 Average ROB Occupancy at Mispredict: 116.289

Branch types
NOT_BRANCH: 41473571 82.9471%
BRANCH_DIRECT_JUMP: 347941 0.695882%
BRANCH_INDIRECT: 148212 0.296424%
BRANCH_CONDITIONAL: 6817276 13.6346%
BRANCH_DIRECT_CALL: 570724 1.14145%
BRANCH_INDIRECT_CALL: 25133 0.050266%
BRANCH_RETURN: 617123 1.23425%
BRANCH_OTHER: 0 0%

