Initialize SIGNATURE TABLE
ST_SET: 1
ST_WAY: 256
ST_TAG_BIT: 16
ST_TAG_MASK: ffff

Initialize PATTERN TABLE
PT_SET: 512
PT_WAY: 4
SIG_DELTA_BIT: 7
C_SIG_BIT: 4
C_DELTA_BIT: 4

Initialize PREFETCH FILTER
FILTER_SET: 1024

*** ChampSim Multicore Out-of-Order Simulator ***

Warmup Instructions: 50000000
Simulation Instructions: 50000000
Number of CPUs: 1
LLC sets: 2048
LLC ways: 16
Off-chip DRAM Size: 4096 MB Channels: 1 Width: 64-bit Data Rate: 3200 MT/s

CPU 0 runs /Users/brandon/Documents/CoursesWi22/CSE240C/Homework1/ChampSim/ipc1_public/server_017.champsimtrace.xz
L1I D-JOLT instruction prefetcher has been constructed!
CPU 0 L1D next line prefetcher
Heartbeat CPU 0 instructions: 10000001 cycles: 3622662 heartbeat IPC: 2.7604 cumulative IPC: 2.7604 (Simulation time: 0 hr 1 min 31 sec) 
Heartbeat CPU 0 instructions: 20000000 cycles: 7243284 heartbeat IPC: 2.76196 cumulative IPC: 2.76118 (Simulation time: 0 hr 3 min 20 sec) 
Heartbeat CPU 0 instructions: 30000002 cycles: 10870477 heartbeat IPC: 2.75695 cumulative IPC: 2.75977 (Simulation time: 0 hr 5 min 16 sec) 
Heartbeat CPU 0 instructions: 40000000 cycles: 14493069 heartbeat IPC: 2.76045 cumulative IPC: 2.75994 (Simulation time: 0 hr 7 min 14 sec) 
Heartbeat CPU 0 instructions: 50000001 cycles: 18126553 heartbeat IPC: 2.75218 cumulative IPC: 2.75838 (Simulation time: 0 hr 9 min 19 sec) 

Warmup complete CPU 0 instructions: 50000001 cycles: 18126553 (Simulation time: 0 hr 9 min 19 sec) 

Heartbeat CPU 0 instructions: 60000002 cycles: 35592176 heartbeat IPC: 0.572553 cumulative IPC: 0.572553 (Simulation time: 0 hr 12 min 2 sec) 
Heartbeat CPU 0 instructions: 70000002 cycles: 53230859 heartbeat IPC: 0.566936 cumulative IPC: 0.569731 (Simulation time: 0 hr 14 min 48 sec) 
Heartbeat CPU 0 instructions: 80000000 cycles: 70568615 heartbeat IPC: 0.576776 cumulative IPC: 0.57206 (Simulation time: 0 hr 16 min 59 sec) 
Heartbeat CPU 0 instructions: 90000002 cycles: 93765223 heartbeat IPC: 0.431098 cumulative IPC: 0.52883 (Simulation time: 0 hr 17 min 59 sec) 
Heartbeat CPU 0 instructions: 100000003 cycles: 113690644 heartbeat IPC: 0.501872 cumulative IPC: 0.523209 (Simulation time: 0 hr 18 min 38 sec) 
Finished CPU 0 instructions: 50000002 cycles: 95564091 cumulative IPC: 0.523209 (Simulation time: 0 hr 18 min 38 sec) 

ChampSim completed all CPUs

Region of Interest Statistics

CPU 0 cumulative IPC: 0.523209 instructions: 50000002 cycles: 95564091
L1D TOTAL     ACCESS:   18374868  HIT:   16209328  MISS:    2165540
L1D LOAD      ACCESS:    7023120  HIT:    6279754  MISS:     743366
L1D RFO       ACCESS:    5515173  HIT:    4655991  MISS:     859182
L1D PREFETCH  ACCESS:    5836575  HIT:    5273583  MISS:     562992
L1D WRITEBACK ACCESS:          0  HIT:          0  MISS:          0
L1D PREFETCH  REQUESTED:    7060993  ISSUED:    6871640  USEFUL:     200639  USELESS:     362414
L1D AVERAGE MISS LATENCY: 177.982 cycles
L1I TOTAL     ACCESS:   17591681  HIT:   14585865  MISS:    3005816
L1I LOAD      ACCESS:    9905127  HIT:    9869919  MISS:      35208
L1I RFO       ACCESS:          0  HIT:          0  MISS:          0
L1I PREFETCH  ACCESS:    7686554  HIT:    4715946  MISS:    2970608
L1I WRITEBACK ACCESS:          0  HIT:          0  MISS:          0
L1I PREFETCH  REQUESTED:    8207387  ISSUED:    8160577  USEFUL:    2427904  USELESS:     542708
L1I AVERAGE MISS LATENCY: 18.579 cycles
L2C TOTAL     ACCESS:    7591603  HIT:    5745426  MISS:    1846177
L2C LOAD      ACCESS:     570999  HIT:     241635  MISS:     329364
L2C RFO       ACCESS:     858727  HIT:      17486  MISS:     841241
L2C PREFETCH  ACCESS:    5038963  HIT:    4367270  MISS:     671693
L2C WRITEBACK ACCESS:    1122914  HIT:    1119035  MISS:       3879
L2C PREFETCH  REQUESTED:    4678290  ISSUED:    4674389  USEFUL:      20828  USELESS:     651574
L2C AVERAGE MISS LATENCY: 212.928 cycles
LLC TOTAL     ACCESS:    4176467  HIT:    2636704  MISS:    1539763
LLC LOAD      ACCESS:     329289  HIT:     170882  MISS:     158407
LLC RFO       ACCESS:     841240  HIT:     122952  MISS:     718288
LLC PREFETCH  ACCESS:    1942865  HIT:    1282272  MISS:     660593
LLC WRITEBACK ACCESS:    1063073  HIT:    1060598  MISS:       2475
LLC PREFETCH  REQUESTED:          0  ISSUED:          0  USEFUL:      49618  USELESS:     609517
LLC AVERAGE MISS LATENCY: 271.876 cycles
Major fault: 0 Minor fault: 24698
CPU 0 L1D next line prefetcher final stats

DRAM Statistics
 CHANNEL 0
 RQ ROW_BUFFER_HIT:     377857  ROW_BUFFER_MISS:    1159225
 DBUS_CONGESTED:    1480298
 WQ ROW_BUFFER_HIT:     243789  ROW_BUFFER_MISS:     636487  FULL:          0

 AVG_CONGESTED_CYCLE: 6

CPU 0 Branch Prediction Accuracy: 99.2833% MPKI: 1.20568 Average ROB Occupancy at Mispredict: 182.22

Branch types
NOT_BRANCH: 41588346 83.1767%
BRANCH_DIRECT_JUMP: 464501 0.929002%
BRANCH_INDIRECT: 45704 0.091408%
BRANCH_CONDITIONAL: 6147408 12.2948%
BRANCH_DIRECT_CALL: 675450 1.3509%
BRANCH_INDIRECT_CALL: 201532 0.403064%
BRANCH_RETURN: 876985 1.75397%
BRANCH_OTHER: 0 0%

