Initialize SIGNATURE TABLE
ST_SET: 1
ST_WAY: 256
ST_TAG_BIT: 16
ST_TAG_MASK: ffff

Initialize PATTERN TABLE
PT_SET: 512
PT_WAY: 4
SIG_DELTA_BIT: 7
C_SIG_BIT: 4
C_DELTA_BIT: 4

Initialize PREFETCH FILTER
FILTER_SET: 1024

*** ChampSim Multicore Out-of-Order Simulator ***

Warmup Instructions: 50000000
Simulation Instructions: 50000000
Number of CPUs: 1
LLC sets: 2048
LLC ways: 16
Off-chip DRAM Size: 4096 MB Channels: 1 Width: 64-bit Data Rate: 3200 MT/s

CPU 0 runs /Users/brandon/Documents/CoursesWi22/CSE240C/Homework1/ChampSim/ipc1_public/server_033.champsimtrace.xz
L1I D-JOLT instruction prefetcher has been constructed!
CPU 0 L1D next line prefetcher
Heartbeat CPU 0 instructions: 10000001 cycles: 3343051 heartbeat IPC: 2.99128 cumulative IPC: 2.99128 (Simulation time: 0 hr 1 min 48 sec) 
Heartbeat CPU 0 instructions: 20000002 cycles: 6684525 heartbeat IPC: 2.99269 cumulative IPC: 2.99199 (Simulation time: 0 hr 3 min 39 sec) 
Heartbeat CPU 0 instructions: 30000001 cycles: 10016543 heartbeat IPC: 3.00118 cumulative IPC: 2.99505 (Simulation time: 0 hr 5 min 28 sec) 
Heartbeat CPU 0 instructions: 40000000 cycles: 13357969 heartbeat IPC: 2.99273 cumulative IPC: 2.99447 (Simulation time: 0 hr 7 min 19 sec) 
Heartbeat CPU 0 instructions: 50000000 cycles: 16698481 heartbeat IPC: 2.99355 cumulative IPC: 2.99428 (Simulation time: 0 hr 9 min 12 sec) 

Warmup complete CPU 0 instructions: 50000004 cycles: 16698482 (Simulation time: 0 hr 9 min 12 sec) 

Heartbeat CPU 0 instructions: 60000000 cycles: 23304442 heartbeat IPC: 1.51378 cumulative IPC: 1.51378 (Simulation time: 0 hr 11 min 4 sec) 
Heartbeat CPU 0 instructions: 70000000 cycles: 29885837 heartbeat IPC: 1.51943 cumulative IPC: 1.5166 (Simulation time: 0 hr 12 min 50 sec) 
Heartbeat CPU 0 instructions: 80000000 cycles: 37239309 heartbeat IPC: 1.3599 cumulative IPC: 1.46051 (Simulation time: 0 hr 14 min 32 sec) 
Heartbeat CPU 0 instructions: 90000003 cycles: 43864760 heartbeat IPC: 1.50933 cumulative IPC: 1.47241 (Simulation time: 0 hr 16 min 1 sec) 
Heartbeat CPU 0 instructions: 100000003 cycles: 50443282 heartbeat IPC: 1.5201 cumulative IPC: 1.48171 (Simulation time: 0 hr 17 min 19 sec) 
Finished CPU 0 instructions: 50000003 cycles: 33744801 cumulative IPC: 1.48171 (Simulation time: 0 hr 17 min 19 sec) 

ChampSim completed all CPUs

Region of Interest Statistics

CPU 0 cumulative IPC: 1.48171 instructions: 50000003 cycles: 33744801
L1D TOTAL     ACCESS:   18221673  HIT:   16739444  MISS:    1482229
L1D LOAD      ACCESS:    6137496  HIT:    5454070  MISS:     683426
L1D RFO       ACCESS:    6160459  HIT:    6011129  MISS:     149330
L1D PREFETCH  ACCESS:    5923718  HIT:    5274245  MISS:     649473
L1D WRITEBACK ACCESS:          0  HIT:          0  MISS:          0
L1D PREFETCH  REQUESTED:    6180409  ISSUED:    6060369  USEFUL:     141311  USELESS:     508168
L1D AVERAGE MISS LATENCY: 24.6108 cycles
L1I TOTAL     ACCESS:   19265281  HIT:   15214744  MISS:    4050537
L1I LOAD      ACCESS:    9710390  HIT:    9662855  MISS:      47535
L1I RFO       ACCESS:          0  HIT:          0  MISS:          0
L1I PREFETCH  ACCESS:    9554891  HIT:    5551889  MISS:    4003002
L1I WRITEBACK ACCESS:          0  HIT:          0  MISS:          0
L1I PREFETCH  REQUESTED:   10148716  ISSUED:    9993261  USEFUL:    3322492  USELESS:     680479
L1I AVERAGE MISS LATENCY: 16.0921 cycles
L2C TOTAL     ACCESS:    7684617  HIT:    7261598  MISS:     423019
L2C LOAD      ACCESS:     719949  HIT:     588925  MISS:     131024
L2C RFO       ACCESS:     147932  HIT:     121128  MISS:      26804
L2C PREFETCH  ACCESS:    6450233  HIT:    6192319  MISS:     257914
L2C WRITEBACK ACCESS:     366503  HIT:     359226  MISS:       7277
L2C PREFETCH  REQUESTED:    5916955  ISSUED:    5882763  USEFUL:       8734  USELESS:     248889
L2C AVERAGE MISS LATENCY: 45.6444 cycles
LLC TOTAL     ACCESS:    2447494  HIT:    2379161  MISS:      68333
LLC LOAD      ACCESS:     130984  HIT:     116251  MISS:      14733
LLC RFO       ACCESS:      26734  HIT:      23886  MISS:       2848
LLC PREFETCH  ACCESS:    2173780  HIT:    2123335  MISS:      50445
LLC WRITEBACK ACCESS:     115996  HIT:     115689  MISS:        307
LLC PREFETCH  REQUESTED:          0  ISSUED:          0  USEFUL:       7542  USELESS:      41076
LLC AVERAGE MISS LATENCY: 175.768 cycles
Major fault: 0 Minor fault: 2486
CPU 0 L1D next line prefetcher final stats

DRAM Statistics
 CHANNEL 0
 RQ ROW_BUFFER_HIT:      10307  ROW_BUFFER_MISS:      57712
 DBUS_CONGESTED:      28757
 WQ ROW_BUFFER_HIT:       4360  ROW_BUFFER_MISS:      18147  FULL:          0

 AVG_CONGESTED_CYCLE: 5

CPU 0 Branch Prediction Accuracy: 99.9029% MPKI: 0.19006 Average ROB Occupancy at Mispredict: 256.495

Branch types
NOT_BRANCH: 40217129 80.4343%
BRANCH_DIRECT_JUMP: 774600 1.5492%
BRANCH_INDIRECT: 108806 0.217612%
BRANCH_CONDITIONAL: 6379334 12.7587%
BRANCH_DIRECT_CALL: 1048809 2.09762%
BRANCH_INDIRECT_CALL: 211109 0.422218%
BRANCH_RETURN: 1259926 2.51985%
BRANCH_OTHER: 0 0%

