Initialize SIGNATURE TABLE
ST_SET: 1
ST_WAY: 256
ST_TAG_BIT: 16
ST_TAG_MASK: ffff

Initialize PATTERN TABLE
PT_SET: 512
PT_WAY: 4
SIG_DELTA_BIT: 7
C_SIG_BIT: 4
C_DELTA_BIT: 4

Initialize PREFETCH FILTER
FILTER_SET: 1024

*** ChampSim Multicore Out-of-Order Simulator ***

Warmup Instructions: 50000000
Simulation Instructions: 50000000
Number of CPUs: 1
LLC sets: 2048
LLC ways: 16
Off-chip DRAM Size: 4096 MB Channels: 1 Width: 64-bit Data Rate: 3200 MT/s

CPU 0 runs /Users/brandon/Documents/CoursesWi22/CSE240C/Homework1/ChampSim/ipc1_public/server_003.champsimtrace.xz
L1I D-JOLT instruction prefetcher has been constructed!
CPU 0 L1D next line prefetcher
Heartbeat CPU 0 instructions: 10000002 cycles: 3217414 heartbeat IPC: 3.10809 cumulative IPC: 3.10809 (Simulation time: 0 hr 1 min 22 sec) 
Heartbeat CPU 0 instructions: 20000000 cycles: 6532463 heartbeat IPC: 3.01655 cumulative IPC: 3.06163 (Simulation time: 0 hr 2 min 58 sec) 
Heartbeat CPU 0 instructions: 30000000 cycles: 9737342 heartbeat IPC: 3.12024 cumulative IPC: 3.08092 (Simulation time: 0 hr 4 min 43 sec) 
Heartbeat CPU 0 instructions: 40000001 cycles: 13150387 heartbeat IPC: 2.92994 cumulative IPC: 3.04174 (Simulation time: 0 hr 6 min 36 sec) 
Heartbeat CPU 0 instructions: 50000002 cycles: 16869472 heartbeat IPC: 2.68883 cumulative IPC: 2.96393 (Simulation time: 0 hr 8 min 34 sec) 

Warmup complete CPU 0 instructions: 50000002 cycles: 16869472 (Simulation time: 0 hr 8 min 34 sec) 

Heartbeat CPU 0 instructions: 60000000 cycles: 26167497 heartbeat IPC: 1.0755 cumulative IPC: 1.0755 (Simulation time: 0 hr 10 min 19 sec) 
Heartbeat CPU 0 instructions: 70000003 cycles: 35371624 heartbeat IPC: 1.08647 cumulative IPC: 1.08096 (Simulation time: 0 hr 11 min 49 sec) 
Heartbeat CPU 0 instructions: 80000000 cycles: 45353956 heartbeat IPC: 1.00177 cumulative IPC: 1.0532 (Simulation time: 0 hr 13 min 30 sec) 
Heartbeat CPU 0 instructions: 90000001 cycles: 55299491 heartbeat IPC: 1.00548 cumulative IPC: 1.04085 (Simulation time: 0 hr 15 min 11 sec) 
Heartbeat CPU 0 instructions: 100000000 cycles: 65912662 heartbeat IPC: 0.942225 cumulative IPC: 1.01951 (Simulation time: 0 hr 16 min 36 sec) 
Finished CPU 0 instructions: 50000002 cycles: 49043191 cumulative IPC: 1.01951 (Simulation time: 0 hr 16 min 36 sec) 

ChampSim completed all CPUs

Region of Interest Statistics

CPU 0 cumulative IPC: 1.01951 instructions: 50000002 cycles: 49043191
L1D TOTAL     ACCESS:   19997803  HIT:   18856942  MISS:    1140861
L1D LOAD      ACCESS:    7853239  HIT:    7323479  MISS:     529760
L1D RFO       ACCESS:    4552519  HIT:    4435196  MISS:     117323
L1D PREFETCH  ACCESS:    7592045  HIT:    7098267  MISS:     493778
L1D WRITEBACK ACCESS:          0  HIT:          0  MISS:          0
L1D PREFETCH  REQUESTED:    7913095  ISSUED:    7821490  USEFUL:     155578  USELESS:     338158
L1D AVERAGE MISS LATENCY: 54.1174 cycles
L1I TOTAL     ACCESS:   14900694  HIT:   13406374  MISS:    1494320
L1I LOAD      ACCESS:    9321217  HIT:    9180011  MISS:     141206
L1I RFO       ACCESS:          0  HIT:          0  MISS:          0
L1I PREFETCH  ACCESS:    5579477  HIT:    4226363  MISS:    1353114
L1I WRITEBACK ACCESS:          0  HIT:          0  MISS:          0
L1I PREFETCH  REQUESTED:    6013077  ISSUED:    5837069  USEFUL:     880503  USELESS:     472820
L1I AVERAGE MISS LATENCY: 33.4437 cycles
L2C TOTAL     ACCESS:    3599830  HIT:    2615118  MISS:     984712
L2C LOAD      ACCESS:     617997  HIT:     342801  MISS:     275196
L2C RFO       ACCESS:     114609  HIT:      40386  MISS:      74223
L2C PREFETCH  ACCESS:    2582972  HIT:    1948744  MISS:     634228
L2C WRITEBACK ACCESS:     284252  HIT:     283187  MISS:       1065
L2C PREFETCH  REQUESTED:    2365351  ISSUED:    2363180  USEFUL:      35734  USELESS:     596108
L2C AVERAGE MISS LATENCY: 76.1139 cycles
LLC TOTAL     ACCESS:    1839025  HIT:    1490792  MISS:     348233
LLC LOAD      ACCESS:     274961  HIT:     203289  MISS:      71672
LLC RFO       ACCESS:      74219  HIT:      32347  MISS:      41872
LLC PREFETCH  ACCESS:    1324074  HIT:    1090530  MISS:     233544
LLC WRITEBACK ACCESS:     165771  HIT:     164626  MISS:       1145
LLC PREFETCH  REQUESTED:          0  ISSUED:          0  USEFUL:      38140  USELESS:     186032
LLC AVERAGE MISS LATENCY: 184.785 cycles
Major fault: 0 Minor fault: 7778
CPU 0 L1D next line prefetcher final stats

DRAM Statistics
 CHANNEL 0
 RQ ROW_BUFFER_HIT:      72751  ROW_BUFFER_MISS:     274285
 DBUS_CONGESTED:     170790
 WQ ROW_BUFFER_HIT:      24525  ROW_BUFFER_MISS:      77322  FULL:          0

 AVG_CONGESTED_CYCLE: 5

CPU 0 Branch Prediction Accuracy: 95.439% MPKI: 9.02702 Average ROB Occupancy at Mispredict: 67.2387

Branch types
NOT_BRANCH: 40104080 80.2082%
BRANCH_DIRECT_JUMP: 497928 0.995856%
BRANCH_INDIRECT: 130587 0.261174%
BRANCH_CONDITIONAL: 7219015 14.438%
BRANCH_DIRECT_CALL: 625807 1.25161%
BRANCH_INDIRECT_CALL: 389787 0.779574%
BRANCH_RETURN: 1032747 2.06549%
BRANCH_OTHER: 0 0%

