Initialize SIGNATURE TABLE
ST_SET: 1
ST_WAY: 256
ST_TAG_BIT: 16
ST_TAG_MASK: ffff

Initialize PATTERN TABLE
PT_SET: 512
PT_WAY: 4
SIG_DELTA_BIT: 7
C_SIG_BIT: 4
C_DELTA_BIT: 4

Initialize PREFETCH FILTER
FILTER_SET: 1024

*** ChampSim Multicore Out-of-Order Simulator ***

Warmup Instructions: 50000000
Simulation Instructions: 50000000
Number of CPUs: 1
LLC sets: 2048
LLC ways: 16
Off-chip DRAM Size: 4096 MB Channels: 1 Width: 64-bit Data Rate: 3200 MT/s

CPU 0 runs /Users/brandon/Documents/CoursesWi22/CSE240C/Homework1/ChampSim/ipc1_public/server_037.champsimtrace.xz
L1I D-JOLT instruction prefetcher has been constructed!
CPU 0 L1D next line prefetcher
Heartbeat CPU 0 instructions: 10000001 cycles: 3319363 heartbeat IPC: 3.01263 cumulative IPC: 3.01263 (Simulation time: 0 hr 1 min 51 sec) 
Heartbeat CPU 0 instructions: 20000002 cycles: 6636089 heartbeat IPC: 3.01502 cumulative IPC: 3.01382 (Simulation time: 0 hr 3 min 45 sec) 
Heartbeat CPU 0 instructions: 30000003 cycles: 10000830 heartbeat IPC: 2.972 cumulative IPC: 2.99975 (Simulation time: 0 hr 5 min 36 sec) 
Heartbeat CPU 0 instructions: 40000000 cycles: 13319364 heartbeat IPC: 3.01338 cumulative IPC: 3.00315 (Simulation time: 0 hr 7 min 29 sec) 
Heartbeat CPU 0 instructions: 50000003 cycles: 16637780 heartbeat IPC: 3.01349 cumulative IPC: 3.00521 (Simulation time: 0 hr 9 min 25 sec) 

Warmup complete CPU 0 instructions: 50000003 cycles: 16637780 (Simulation time: 0 hr 9 min 25 sec) 

Heartbeat CPU 0 instructions: 60000001 cycles: 23053913 heartbeat IPC: 1.55857 cumulative IPC: 1.55857 (Simulation time: 0 hr 11 min 19 sec) 
Heartbeat CPU 0 instructions: 70000000 cycles: 29567842 heartbeat IPC: 1.53517 cumulative IPC: 1.54678 (Simulation time: 0 hr 13 min 7 sec) 
Heartbeat CPU 0 instructions: 80000000 cycles: 35996627 heartbeat IPC: 1.5555 cumulative IPC: 1.54968 (Simulation time: 0 hr 14 min 50 sec) 
Heartbeat CPU 0 instructions: 90000002 cycles: 42445718 heartbeat IPC: 1.55061 cumulative IPC: 1.54991 (Simulation time: 0 hr 16 min 19 sec) 
*** Reached end of trace for Core: 0 Repeating trace: /Users/brandon/Documents/CoursesWi22/CSE240C/Homework1/ChampSim/ipc1_public/server_037.champsimtrace.xz
Heartbeat CPU 0 instructions: 100000000 cycles: 48870077 heartbeat IPC: 1.55658 cumulative IPC: 1.55124 (Simulation time: 0 hr 17 min 28 sec) 
Finished CPU 0 instructions: 50000001 cycles: 32232298 cumulative IPC: 1.55124 (Simulation time: 0 hr 17 min 28 sec) 

ChampSim completed all CPUs

Region of Interest Statistics

CPU 0 cumulative IPC: 1.55124 instructions: 50000001 cycles: 32232298
L1D TOTAL     ACCESS:   18686069  HIT:   17708167  MISS:     977902
L1D LOAD      ACCESS:    6359437  HIT:    5867714  MISS:     491723
L1D RFO       ACCESS:    6204986  HIT:    6140920  MISS:      64066
L1D PREFETCH  ACCESS:    6121646  HIT:    5699533  MISS:     422113
L1D WRITEBACK ACCESS:          0  HIT:          0  MISS:          0
L1D PREFETCH  REQUESTED:    6397287  ISSUED:    6244253  USEFUL:     117057  USELESS:     305060
L1D AVERAGE MISS LATENCY: 30.2114 cycles
L1I TOTAL     ACCESS:   20275194  HIT:   15216490  MISS:    5058704
L1I LOAD      ACCESS:    9461802  HIT:    9411092  MISS:      50710
L1I RFO       ACCESS:          0  HIT:          0  MISS:          0
L1I PREFETCH  ACCESS:   10813392  HIT:    5805398  MISS:    5007994
L1I WRITEBACK ACCESS:          0  HIT:          0  MISS:          0
L1I PREFETCH  REQUESTED:   11218128  ISSUED:   11213376  USEFUL:    4100974  USELESS:     907026
L1I AVERAGE MISS LATENCY: 14.7369 cycles
L2C TOTAL     ACCESS:    8868441  HIT:    8519330  MISS:     349111
L2C LOAD      ACCESS:     536536  HIT:     381736  MISS:     154800
L2C RFO       ACCESS:      63757  HIT:      34839  MISS:      28918
L2C PREFETCH  ACCESS:    7978607  HIT:    7814391  MISS:     164216
L2C WRITEBACK ACCESS:     289541  HIT:     288364  MISS:       1177
L2C PREFETCH  REQUESTED:    5999243  ISSUED:    5986247  USEFUL:       7776  USELESS:     156217
L2C AVERAGE MISS LATENCY: 44.6422 cycles
LLC TOTAL     ACCESS:    1658092  HIT:    1601473  MISS:      56619
LLC LOAD      ACCESS:     154770  HIT:     141657  MISS:      13113
LLC RFO       ACCESS:      28916  HIT:      24200  MISS:       4716
LLC PREFETCH  ACCESS:    1319050  HIT:    1280750  MISS:      38300
LLC WRITEBACK ACCESS:     155356  HIT:     154866  MISS:        490
LLC PREFETCH  REQUESTED:          0  ISSUED:          0  USEFUL:       3674  USELESS:      34835
LLC AVERAGE MISS LATENCY: 166.577 cycles
Major fault: 0 Minor fault: 5654
CPU 0 L1D next line prefetcher final stats

DRAM Statistics
 CHANNEL 0
 RQ ROW_BUFFER_HIT:       8659  ROW_BUFFER_MISS:      47470
 DBUS_CONGESTED:      26661
 WQ ROW_BUFFER_HIT:       1346  ROW_BUFFER_MISS:      10344  FULL:          0

 AVG_CONGESTED_CYCLE: 5

CPU 0 Branch Prediction Accuracy: 99.913% MPKI: 0.15656 Average ROB Occupancy at Mispredict: 228.841

Branch types
NOT_BRANCH: 41001727 82.0035%
BRANCH_DIRECT_JUMP: 541941 1.08388%
BRANCH_INDIRECT: 59716 0.119432%
BRANCH_CONDITIONAL: 5916855 11.8337%
BRANCH_DIRECT_CALL: 1005465 2.01093%
BRANCH_INDIRECT_CALL: 234433 0.468866%
BRANCH_RETURN: 1239878 2.47976%
BRANCH_OTHER: 0 0%

