Initialize SIGNATURE TABLE
ST_SET: 1
ST_WAY: 256
ST_TAG_BIT: 16
ST_TAG_MASK: ffff

Initialize PATTERN TABLE
PT_SET: 512
PT_WAY: 4
SIG_DELTA_BIT: 7
C_SIG_BIT: 4
C_DELTA_BIT: 4

Initialize PREFETCH FILTER
FILTER_SET: 1024

*** ChampSim Multicore Out-of-Order Simulator ***

Warmup Instructions: 50000000
Simulation Instructions: 50000000
Number of CPUs: 1
LLC sets: 2048
LLC ways: 16
Off-chip DRAM Size: 4096 MB Channels: 1 Width: 64-bit Data Rate: 3200 MT/s

CPU 0 runs /Users/brandon/Documents/CoursesWi22/CSE240C/Homework1/ChampSim/ipc1_public/server_036.champsimtrace.xz
L1I D-JOLT instruction prefetcher has been constructed!
CPU 0 L1D next line prefetcher
Heartbeat CPU 0 instructions: 10000000 cycles: 3458971 heartbeat IPC: 2.89103 cumulative IPC: 2.89103 (Simulation time: 0 hr 1 min 49 sec) 
Heartbeat CPU 0 instructions: 20000000 cycles: 6924761 heartbeat IPC: 2.88534 cumulative IPC: 2.88819 (Simulation time: 0 hr 3 min 42 sec) 
Heartbeat CPU 0 instructions: 30000003 cycles: 10432893 heartbeat IPC: 2.85052 cumulative IPC: 2.87552 (Simulation time: 0 hr 5 min 31 sec) 
Heartbeat CPU 0 instructions: 40000000 cycles: 13895392 heartbeat IPC: 2.88809 cumulative IPC: 2.87865 (Simulation time: 0 hr 7 min 23 sec) 
Heartbeat CPU 0 instructions: 50000002 cycles: 17357094 heartbeat IPC: 2.88875 cumulative IPC: 2.88067 (Simulation time: 0 hr 9 min 16 sec) 

Warmup complete CPU 0 instructions: 50000002 cycles: 17357094 (Simulation time: 0 hr 9 min 16 sec) 

Heartbeat CPU 0 instructions: 60000000 cycles: 22983213 heartbeat IPC: 1.77742 cumulative IPC: 1.77742 (Simulation time: 0 hr 10 min 57 sec) 
Heartbeat CPU 0 instructions: 70000001 cycles: 28566263 heartbeat IPC: 1.79114 cumulative IPC: 1.78425 (Simulation time: 0 hr 12 min 30 sec) 
Heartbeat CPU 0 instructions: 80000001 cycles: 34179939 heartbeat IPC: 1.78136 cumulative IPC: 1.78329 (Simulation time: 0 hr 14 min 3 sec) 
Heartbeat CPU 0 instructions: 90000002 cycles: 39767446 heartbeat IPC: 1.78971 cumulative IPC: 1.78489 (Simulation time: 0 hr 15 min 26 sec) 
Heartbeat CPU 0 instructions: 100000001 cycles: 45343830 heartbeat IPC: 1.79328 cumulative IPC: 1.78656 (Simulation time: 0 hr 16 min 41 sec) 
Finished CPU 0 instructions: 50000003 cycles: 27986737 cumulative IPC: 1.78656 (Simulation time: 0 hr 16 min 41 sec) 

ChampSim completed all CPUs

Region of Interest Statistics

CPU 0 cumulative IPC: 1.78656 instructions: 50000003 cycles: 27986737
L1D TOTAL     ACCESS:   20454135  HIT:   20393925  MISS:      60210
L1D LOAD      ACCESS:    6657793  HIT:    6622961  MISS:      34832
L1D RFO       ACCESS:    7343042  HIT:    7335817  MISS:       7225
L1D PREFETCH  ACCESS:    6453300  HIT:    6435147  MISS:      18153
L1D WRITEBACK ACCESS:          0  HIT:          0  MISS:          0
L1D PREFETCH  REQUESTED:    6658765  ISSUED:    6485355  USEFUL:       5463  USELESS:      12691
L1D AVERAGE MISS LATENCY: 18.0521 cycles
L1I TOTAL     ACCESS:   16859584  HIT:   11934747  MISS:    4924837
L1I LOAD      ACCESS:    8985094  HIT:    8955804  MISS:      29290
L1I RFO       ACCESS:          0  HIT:          0  MISS:          0
L1I PREFETCH  ACCESS:    7874490  HIT:    2978943  MISS:    4895547
L1I WRITEBACK ACCESS:          0  HIT:          0  MISS:          0
L1I PREFETCH  REQUESTED:    8093565  ISSUED:    8064086  USEFUL:    3949685  USELESS:     945816
L1I AVERAGE MISS LATENCY: 14.786 cycles
L2C TOTAL     ACCESS:    7294747  HIT:    7292479  MISS:       2268
L2C LOAD      ACCESS:      61662  HIT:      61249  MISS:        413
L2C RFO       ACCESS:       7217  HIT:       7161  MISS:         56
L2C PREFETCH  ACCESS:    7210237  HIT:    7208448  MISS:       1789
L2C WRITEBACK ACCESS:      15631  HIT:      15621  MISS:         10
L2C PREFETCH  REQUESTED:    6545616  ISSUED:    6539796  USEFUL:        246  USELESS:       1008
L2C AVERAGE MISS LATENCY: 159.272 cycles
LLC TOTAL     ACCESS:    1030234  HIT:    1027413  MISS:       2821
LLC LOAD      ACCESS:        411  HIT:        156  MISS:        255
LLC RFO       ACCESS:         56  HIT:         14  MISS:         42
LLC PREFETCH  ACCESS:    1028783  HIT:    1026266  MISS:       2517
LLC WRITEBACK ACCESS:        984  HIT:        977  MISS:          7
LLC PREFETCH  REQUESTED:          0  ISSUED:          0  USEFUL:         80  USELESS:        702
LLC AVERAGE MISS LATENCY: 269.804 cycles
Major fault: 0 Minor fault: 1933
CPU 0 L1D next line prefetcher final stats

DRAM Statistics
 CHANNEL 0
 RQ ROW_BUFFER_HIT:        576  ROW_BUFFER_MISS:       2238
 DBUS_CONGESTED:       1741
 WQ ROW_BUFFER_HIT:        267  ROW_BUFFER_MISS:       1698  FULL:          0

 AVG_CONGESTED_CYCLE: 6

CPU 0 Branch Prediction Accuracy: 99.8717% MPKI: 0.21174 Average ROB Occupancy at Mispredict: 231.077

Branch types
NOT_BRANCH: 41748430 83.4969%
BRANCH_DIRECT_JUMP: 468563 0.937126%
BRANCH_INDIRECT: 0 0%
BRANCH_CONDITIONAL: 5599753 11.1995%
BRANCH_DIRECT_CALL: 885105 1.77021%
BRANCH_INDIRECT_CALL: 206338 0.412676%
BRANCH_RETURN: 1091467 2.18293%
BRANCH_OTHER: 0 0%

