Initialize SIGNATURE TABLE
ST_SET: 1
ST_WAY: 256
ST_TAG_BIT: 16
ST_TAG_MASK: ffff

Initialize PATTERN TABLE
PT_SET: 512
PT_WAY: 4
SIG_DELTA_BIT: 7
C_SIG_BIT: 4
C_DELTA_BIT: 4

Initialize PREFETCH FILTER
FILTER_SET: 1024

*** ChampSim Multicore Out-of-Order Simulator ***

Warmup Instructions: 50000000
Simulation Instructions: 50000000
Number of CPUs: 1
LLC sets: 2048
LLC ways: 16
Off-chip DRAM Size: 4096 MB Channels: 1 Width: 64-bit Data Rate: 3200 MT/s

CPU 0 runs /Users/brandon/Documents/CoursesWi22/CSE240C/Homework1/ChampSim/ipc1_public/server_026.champsimtrace.xz
L1I D-JOLT instruction prefetcher has been constructed!
CPU 0 L1D next line prefetcher
Heartbeat CPU 0 instructions: 10000000 cycles: 3524104 heartbeat IPC: 2.8376 cumulative IPC: 2.8376 (Simulation time: 0 hr 1 min 49 sec) 
Heartbeat CPU 0 instructions: 20000002 cycles: 7054617 heartbeat IPC: 2.83245 cumulative IPC: 2.83502 (Simulation time: 0 hr 3 min 40 sec) 
Heartbeat CPU 0 instructions: 30000000 cycles: 10574224 heartbeat IPC: 2.84123 cumulative IPC: 2.83709 (Simulation time: 0 hr 5 min 28 sec) 
Heartbeat CPU 0 instructions: 40000003 cycles: 14102893 heartbeat IPC: 2.83393 cumulative IPC: 2.8363 (Simulation time: 0 hr 7 min 19 sec) 
Heartbeat CPU 0 instructions: 50000000 cycles: 17624145 heartbeat IPC: 2.8399 cumulative IPC: 2.83702 (Simulation time: 0 hr 9 min 10 sec) 

Warmup complete CPU 0 instructions: 50000004 cycles: 17624146 (Simulation time: 0 hr 9 min 10 sec) 

*** Reached end of trace for Core: 0 Repeating trace: /Users/brandon/Documents/CoursesWi22/CSE240C/Homework1/ChampSim/ipc1_public/server_026.champsimtrace.xz
Heartbeat CPU 0 instructions: 60000000 cycles: 24541011 heartbeat IPC: 1.44574 cumulative IPC: 1.44574 (Simulation time: 0 hr 11 min 2 sec) 
Heartbeat CPU 0 instructions: 70000003 cycles: 31348611 heartbeat IPC: 1.46895 cumulative IPC: 1.45725 (Simulation time: 0 hr 12 min 45 sec) 
Heartbeat CPU 0 instructions: 80000002 cycles: 38246580 heartbeat IPC: 1.4497 cumulative IPC: 1.45473 (Simulation time: 0 hr 14 min 25 sec) 
Heartbeat CPU 0 instructions: 90000002 cycles: 45040374 heartbeat IPC: 1.47193 cumulative IPC: 1.45899 (Simulation time: 0 hr 15 min 53 sec) 
Heartbeat CPU 0 instructions: 100000000 cycles: 51925055 heartbeat IPC: 1.4525 cumulative IPC: 1.45769 (Simulation time: 0 hr 17 min 14 sec) 
Finished CPU 0 instructions: 50000000 cycles: 34300910 cumulative IPC: 1.45769 (Simulation time: 0 hr 17 min 14 sec) 

ChampSim completed all CPUs

Region of Interest Statistics

CPU 0 cumulative IPC: 1.45769 instructions: 50000000 cycles: 34300910
L1D TOTAL     ACCESS:   19768069  HIT:   18123084  MISS:    1644985
L1D LOAD      ACCESS:    6929918  HIT:    6201183  MISS:     728735
L1D RFO       ACCESS:    6244115  HIT:    5957715  MISS:     286400
L1D PREFETCH  ACCESS:    6594036  HIT:    5964186  MISS:     629850
L1D WRITEBACK ACCESS:          0  HIT:          0  MISS:          0
L1D PREFETCH  REQUESTED:    6975781  ISSUED:    6832925  USEFUL:     152354  USELESS:     477505
L1D AVERAGE MISS LATENCY: 24.0392 cycles
L1I TOTAL     ACCESS:   15742070  HIT:   12547778  MISS:    3194292
L1I LOAD      ACCESS:    9498977  HIT:    9449068  MISS:      49909
L1I RFO       ACCESS:          0  HIT:          0  MISS:          0
L1I PREFETCH  ACCESS:    6243093  HIT:    3098710  MISS:    3144383
L1I WRITEBACK ACCESS:          0  HIT:          0  MISS:          0
L1I PREFETCH  REQUESTED:    6632907  ISSUED:    6544677  USEFUL:    2734720  USELESS:     409670
L1I AVERAGE MISS LATENCY: 19.8847 cycles
L2C TOTAL     ACCESS:    6730983  HIT:    5834880  MISS:     896103
L2C LOAD      ACCESS:     723172  HIT:     575236  MISS:     147936
L2C RFO       ACCESS:     284724  HIT:     197017  MISS:      87707
L2C PREFETCH  ACCESS:    5161891  HIT:    4507697  MISS:     654194
L2C WRITEBACK ACCESS:     561196  HIT:     554930  MISS:       6266
L2C PREFETCH  REQUESTED:    4688631  ISSUED:    4680818  USEFUL:      11991  USELESS:     641972
L2C AVERAGE MISS LATENCY: 37.6952 cycles
LLC TOTAL     ACCESS:    2353890  HIT:    2318442  MISS:      35448
LLC LOAD      ACCESS:     147649  HIT:     144226  MISS:       3423
LLC RFO       ACCESS:      87705  HIT:      73112  MISS:      14593
LLC PREFETCH  ACCESS:    1962568  HIT:    1945334  MISS:      17234
LLC WRITEBACK ACCESS:     155968  HIT:     155770  MISS:        198
LLC PREFETCH  REQUESTED:          0  ISSUED:          0  USEFUL:       1042  USELESS:      16336
LLC AVERAGE MISS LATENCY: 190.38 cycles
Major fault: 0 Minor fault: 2174
CPU 0 L1D next line prefetcher final stats

DRAM Statistics
 CHANNEL 0
 RQ ROW_BUFFER_HIT:      12556  ROW_BUFFER_MISS:      22683
 DBUS_CONGESTED:      23649
 WQ ROW_BUFFER_HIT:       1569  ROW_BUFFER_MISS:      14464  FULL:          0

 AVG_CONGESTED_CYCLE: 6

CPU 0 Branch Prediction Accuracy: 99.822% MPKI: 0.32584 Average ROB Occupancy at Mispredict: 202.007

Branch types
NOT_BRANCH: 40848589 81.6972%
BRANCH_DIRECT_JUMP: 522045 1.04409%
BRANCH_INDIRECT: 204034 0.408068%
BRANCH_CONDITIONAL: 6212965 12.4259%
BRANCH_DIRECT_CALL: 932393 1.86479%
BRANCH_INDIRECT_CALL: 173764 0.347528%
BRANCH_RETURN: 1106152 2.2123%
BRANCH_OTHER: 0 0%

