Initialize SIGNATURE TABLE
ST_SET: 1
ST_WAY: 256
ST_TAG_BIT: 16
ST_TAG_MASK: ffff

Initialize PATTERN TABLE
PT_SET: 512
PT_WAY: 4
SIG_DELTA_BIT: 7
C_SIG_BIT: 4
C_DELTA_BIT: 4

Initialize PREFETCH FILTER
FILTER_SET: 1024

*** ChampSim Multicore Out-of-Order Simulator ***

Warmup Instructions: 50000000
Simulation Instructions: 50000000
Number of CPUs: 1
LLC sets: 2048
LLC ways: 16
Off-chip DRAM Size: 4096 MB Channels: 1 Width: 64-bit Data Rate: 3200 MT/s

CPU 0 runs /Users/brandon/Documents/CoursesWi22/CSE240C/Homework1/ChampSim/ipc1_public/spec_gobmk_001.champsimtrace.xz
L1I D-JOLT instruction prefetcher has been constructed!
CPU 0 L1D next line prefetcher
Heartbeat CPU 0 instructions: 10000003 cycles: 3507098 heartbeat IPC: 2.85136 cumulative IPC: 2.85136 (Simulation time: 0 hr 1 min 29 sec) 
Heartbeat CPU 0 instructions: 20000002 cycles: 6987497 heartbeat IPC: 2.87323 cumulative IPC: 2.86226 (Simulation time: 0 hr 3 min 3 sec) 
Heartbeat CPU 0 instructions: 30000002 cycles: 10506379 heartbeat IPC: 2.84181 cumulative IPC: 2.85541 (Simulation time: 0 hr 4 min 34 sec) 
Heartbeat CPU 0 instructions: 40000001 cycles: 14025439 heartbeat IPC: 2.84167 cumulative IPC: 2.85196 (Simulation time: 0 hr 6 min 6 sec) 
Heartbeat CPU 0 instructions: 50000001 cycles: 17565746 heartbeat IPC: 2.82461 cumulative IPC: 2.84645 (Simulation time: 0 hr 7 min 38 sec) 

Warmup complete CPU 0 instructions: 50000001 cycles: 17565746 (Simulation time: 0 hr 7 min 38 sec) 

Heartbeat CPU 0 instructions: 60000000 cycles: 26346908 heartbeat IPC: 1.1388 cumulative IPC: 1.1388 (Simulation time: 0 hr 8 min 48 sec) 
Heartbeat CPU 0 instructions: 70000002 cycles: 34759032 heartbeat IPC: 1.18876 cumulative IPC: 1.16324 (Simulation time: 0 hr 9 min 56 sec) 
Heartbeat CPU 0 instructions: 80000003 cycles: 43618251 heartbeat IPC: 1.12877 cumulative IPC: 1.15152 (Simulation time: 0 hr 11 min 4 sec) 
Heartbeat CPU 0 instructions: 90000001 cycles: 52131610 heartbeat IPC: 1.17462 cumulative IPC: 1.15721 (Simulation time: 0 hr 12 min 5 sec) 
Heartbeat CPU 0 instructions: 100000003 cycles: 60969820 heartbeat IPC: 1.13145 cumulative IPC: 1.15197 (Simulation time: 0 hr 13 min 8 sec) 
Finished CPU 0 instructions: 50000002 cycles: 43404074 cumulative IPC: 1.15197 (Simulation time: 0 hr 13 min 8 sec) 

ChampSim completed all CPUs

Region of Interest Statistics

CPU 0 cumulative IPC: 1.15197 instructions: 50000002 cycles: 43404074
L1D TOTAL     ACCESS:   17985207  HIT:   17605706  MISS:     379501
L1D LOAD      ACCESS:    7211820  HIT:    7075978  MISS:     135842
L1D RFO       ACCESS:    3701140  HIT:    3596582  MISS:     104558
L1D PREFETCH  ACCESS:    7072247  HIT:    6933146  MISS:     139101
L1D WRITEBACK ACCESS:          0  HIT:          0  MISS:          0
L1D PREFETCH  REQUESTED:    7217215  ISSUED:    7134499  USEFUL:      44421  USELESS:      94686
L1D AVERAGE MISS LATENCY: 32.9072 cycles
L1I TOTAL     ACCESS:   14205731  HIT:   12432801  MISS:    1772930
L1I LOAD      ACCESS:    8983662  HIT:    8926110  MISS:      57552
L1I RFO       ACCESS:          0  HIT:          0  MISS:          0
L1I PREFETCH  ACCESS:    5222069  HIT:    3506691  MISS:    1715378
L1I WRITEBACK ACCESS:          0  HIT:          0  MISS:          0
L1I PREFETCH  REQUESTED:    5452065  ISSUED:    5256385  USEFUL:     818438  USELESS:     896927
L1I AVERAGE MISS LATENCY: 15.1823 cycles
L2C TOTAL     ACCESS:    3121722  HIT:    2993105  MISS:     128617
L2C LOAD      ACCESS:     165892  HIT:     129630  MISS:      36262
L2C RFO       ACCESS:     104213  HIT:      70168  MISS:      34045
L2C PREFETCH  ACCESS:    2712326  HIT:    2654042  MISS:      58284
L2C WRITEBACK ACCESS:     139291  HIT:     139265  MISS:         26
L2C PREFETCH  REQUESTED:    1430830  ISSUED:    1430747  USEFUL:       5703  USELESS:      53040
L2C AVERAGE MISS LATENCY: 61.2747 cycles
LLC TOTAL     ACCESS:     278902  HIT:     247318  MISS:      31584
LLC LOAD      ACCESS:      36260  HIT:      28186  MISS:       8074
LLC RFO       ACCESS:      34045  HIT:      29342  MISS:       4703
LLC PREFETCH  ACCESS:     163841  HIT:     145247  MISS:      18594
LLC WRITEBACK ACCESS:      44756  HIT:      44543  MISS:        213
LLC PREFETCH  REQUESTED:          0  ISSUED:          0  USEFUL:       1373  USELESS:      15976
LLC AVERAGE MISS LATENCY: 181.094 cycles
Major fault: 0 Minor fault: 4161
CPU 0 L1D next line prefetcher final stats

DRAM Statistics
 CHANNEL 0
 RQ ROW_BUFFER_HIT:       3168  ROW_BUFFER_MISS:      28203
 DBUS_CONGESTED:      16519
 WQ ROW_BUFFER_HIT:       1090  ROW_BUFFER_MISS:      13070  FULL:          0

 AVG_CONGESTED_CYCLE: 4

CPU 0 Branch Prediction Accuracy: 94.7729% MPKI: 9.72684 Average ROB Occupancy at Mispredict: 53.8927

Branch types
NOT_BRANCH: 40695383 81.3908%
BRANCH_DIRECT_JUMP: 422107 0.844214%
BRANCH_INDIRECT: 65 0.00013%
BRANCH_CONDITIONAL: 8105005 16.21%
BRANCH_DIRECT_CALL: 374913 0.749826%
BRANCH_INDIRECT_CALL: 13657 0.027314%
BRANCH_RETURN: 388556 0.777112%
BRANCH_OTHER: 0 0%

