Initialize SIGNATURE TABLE
ST_SET: 1
ST_WAY: 256
ST_TAG_BIT: 16
ST_TAG_MASK: ffff

Initialize PATTERN TABLE
PT_SET: 512
PT_WAY: 4
SIG_DELTA_BIT: 7
C_SIG_BIT: 4
C_DELTA_BIT: 4

Initialize PREFETCH FILTER
FILTER_SET: 1024

*** ChampSim Multicore Out-of-Order Simulator ***

Warmup Instructions: 50000000
Simulation Instructions: 50000000
Number of CPUs: 1
LLC sets: 2048
LLC ways: 16
Off-chip DRAM Size: 4096 MB Channels: 1 Width: 64-bit Data Rate: 3200 MT/s

CPU 0 runs /Users/brandon/Documents/CoursesWi22/CSE240C/Homework1/ChampSim/ipc1_public/spec_gobmk_002.champsimtrace.xz
L1I D-JOLT instruction prefetcher has been constructed!
CPU 0 L1D next line prefetcher
Heartbeat CPU 0 instructions: 10000001 cycles: 3287458 heartbeat IPC: 3.04186 cumulative IPC: 3.04186 (Simulation time: 0 hr 1 min 29 sec) 
Heartbeat CPU 0 instructions: 20000000 cycles: 6619035 heartbeat IPC: 3.00158 cumulative IPC: 3.02159 (Simulation time: 0 hr 3 min 1 sec) 
Heartbeat CPU 0 instructions: 30000000 cycles: 9956940 heartbeat IPC: 2.99589 cumulative IPC: 3.01297 (Simulation time: 0 hr 4 min 32 sec) 
Heartbeat CPU 0 instructions: 40000000 cycles: 13266363 heartbeat IPC: 3.02167 cumulative IPC: 3.01514 (Simulation time: 0 hr 6 min 8 sec) 
Heartbeat CPU 0 instructions: 50000003 cycles: 16529876 heartbeat IPC: 3.06418 cumulative IPC: 3.02483 (Simulation time: 0 hr 7 min 42 sec) 

Warmup complete CPU 0 instructions: 50000003 cycles: 16529876 (Simulation time: 0 hr 7 min 42 sec) 

Heartbeat CPU 0 instructions: 60000003 cycles: 23950771 heartbeat IPC: 1.34755 cumulative IPC: 1.34755 (Simulation time: 0 hr 8 min 52 sec) 
Heartbeat CPU 0 instructions: 70000003 cycles: 31317789 heartbeat IPC: 1.3574 cumulative IPC: 1.35246 (Simulation time: 0 hr 9 min 58 sec) 
Heartbeat CPU 0 instructions: 80000000 cycles: 38544244 heartbeat IPC: 1.3838 cumulative IPC: 1.36275 (Simulation time: 0 hr 11 min 5 sec) 
Heartbeat CPU 0 instructions: 90000001 cycles: 46081170 heartbeat IPC: 1.3268 cumulative IPC: 1.35358 (Simulation time: 0 hr 12 min 2 sec) 
Heartbeat CPU 0 instructions: 100000003 cycles: 53874426 heartbeat IPC: 1.28316 cumulative IPC: 1.33888 (Simulation time: 0 hr 13 min 2 sec) 
Finished CPU 0 instructions: 50000000 cycles: 37344550 cumulative IPC: 1.33888 (Simulation time: 0 hr 13 min 2 sec) 

ChampSim completed all CPUs

Region of Interest Statistics

CPU 0 cumulative IPC: 1.33888 instructions: 50000000 cycles: 37344550
L1D TOTAL     ACCESS:   17631529  HIT:   17508401  MISS:     123128
L1D LOAD      ACCESS:    6661403  HIT:    6627148  MISS:      34255
L1D RFO       ACCESS:    4388162  HIT:    4345490  MISS:      42672
L1D PREFETCH  ACCESS:    6581964  HIT:    6535763  MISS:      46201
L1D WRITEBACK ACCESS:          0  HIT:          0  MISS:          0
L1D PREFETCH  REQUESTED:    6663779  ISSUED:    6596424  USEFUL:      17132  USELESS:      29252
L1D AVERAGE MISS LATENCY: 50.6794 cycles
L1I TOTAL     ACCESS:   16160077  HIT:   13657616  MISS:    2502461
L1I LOAD      ACCESS:    8899948  HIT:    8818808  MISS:      81140
L1I RFO       ACCESS:          0  HIT:          0  MISS:          0
L1I PREFETCH  ACCESS:    7260129  HIT:    4838808  MISS:    2421321
L1I WRITEBACK ACCESS:          0  HIT:          0  MISS:          0
L1I PREFETCH  REQUESTED:    7701396  ISSUED:    7317270  USEFUL:    1145855  USELESS:    1275412
L1I AVERAGE MISS LATENCY: 14.5723 cycles
L2C TOTAL     ACCESS:    3793418  HIT:    3755793  MISS:      37625
L2C LOAD      ACCESS:     110163  HIT:      96302  MISS:      13861
L2C RFO       ACCESS:      42545  HIT:      39565  MISS:       2980
L2C PREFETCH  ACCESS:    3566504  HIT:    3545867  MISS:      20637
L2C WRITEBACK ACCESS:      74206  HIT:      74059  MISS:        147
L2C PREFETCH  REQUESTED:    1728215  ISSUED:    1728213  USEFUL:       2439  USELESS:      18676
L2C AVERAGE MISS LATENCY: 124.979 cycles
LLC TOTAL     ACCESS:     100374  HIT:      68988  MISS:      31386
LLC LOAD      ACCESS:      13861  HIT:       5159  MISS:       8702
LLC RFO       ACCESS:       2980  HIT:       1356  MISS:       1624
LLC PREFETCH  ACCESS:      65247  HIT:      44651  MISS:      20596
LLC WRITEBACK ACCESS:      18286  HIT:      17822  MISS:        464
LLC PREFETCH  REQUESTED:          0  ISSUED:          0  USEFUL:       1996  USELESS:      18544
LLC AVERAGE MISS LATENCY: 181.756 cycles
Major fault: 0 Minor fault: 2780
CPU 0 L1D next line prefetcher final stats

DRAM Statistics
 CHANNEL 0
 RQ ROW_BUFFER_HIT:       2482  ROW_BUFFER_MISS:      28440
 DBUS_CONGESTED:      13685
 WQ ROW_BUFFER_HIT:        810  ROW_BUFFER_MISS:      12665  FULL:          0

 AVG_CONGESTED_CYCLE: 4

CPU 0 Branch Prediction Accuracy: 93.9974% MPKI: 10.2447 Average ROB Occupancy at Mispredict: 39.892

Branch types
NOT_BRANCH: 41466054 82.9321%
BRANCH_DIRECT_JUMP: 464313 0.928626%
BRANCH_INDIRECT: 32 6.4e-05%
BRANCH_CONDITIONAL: 7069451 14.1389%
BRANCH_DIRECT_CALL: 499587 0.999174%
BRANCH_INDIRECT_CALL: 342 0.000684%
BRANCH_RETURN: 499906 0.999812%
BRANCH_OTHER: 0 0%

