Initialize SIGNATURE TABLE
ST_SET: 1
ST_WAY: 256
ST_TAG_BIT: 16
ST_TAG_MASK: ffff

Initialize PATTERN TABLE
PT_SET: 512
PT_WAY: 4
SIG_DELTA_BIT: 7
C_SIG_BIT: 4
C_DELTA_BIT: 4

Initialize PREFETCH FILTER
FILTER_SET: 1024

*** ChampSim Multicore Out-of-Order Simulator ***

Warmup Instructions: 50000000
Simulation Instructions: 50000000
Number of CPUs: 1
LLC sets: 2048
LLC ways: 16
Off-chip DRAM Size: 4096 MB Channels: 1 Width: 64-bit Data Rate: 3200 MT/s

CPU 0 runs /Users/brandon/Documents/CoursesWi22/CSE240C/Homework1/ChampSim/ipc1_public/spec_gcc_001.champsimtrace.xz
L1I D-JOLT instruction prefetcher has been constructed!
CPU 0 L1D next line prefetcher
Heartbeat CPU 0 instructions: 10000003 cycles: 3219185 heartbeat IPC: 3.10638 cumulative IPC: 3.10638 (Simulation time: 0 hr 1 min 36 sec) 
Heartbeat CPU 0 instructions: 20000002 cycles: 6464175 heartbeat IPC: 3.08167 cumulative IPC: 3.09398 (Simulation time: 0 hr 3 min 17 sec) 
Heartbeat CPU 0 instructions: 30000000 cycles: 9666334 heartbeat IPC: 3.12289 cumulative IPC: 3.10355 (Simulation time: 0 hr 4 min 53 sec) 
Heartbeat CPU 0 instructions: 40000001 cycles: 12906119 heartbeat IPC: 3.08662 cumulative IPC: 3.09931 (Simulation time: 0 hr 6 min 30 sec) 
Heartbeat CPU 0 instructions: 50000001 cycles: 16146317 heartbeat IPC: 3.08623 cumulative IPC: 3.09668 (Simulation time: 0 hr 8 min 10 sec) 

Warmup complete CPU 0 instructions: 50000001 cycles: 16146317 (Simulation time: 0 hr 8 min 10 sec) 

Heartbeat CPU 0 instructions: 60000000 cycles: 24010284 heartbeat IPC: 1.27162 cumulative IPC: 1.27162 (Simulation time: 0 hr 9 min 38 sec) 
Heartbeat CPU 0 instructions: 70000002 cycles: 31950813 heartbeat IPC: 1.25936 cumulative IPC: 1.26546 (Simulation time: 0 hr 11 min 7 sec) 
Heartbeat CPU 0 instructions: 80000000 cycles: 39486742 heartbeat IPC: 1.32698 cumulative IPC: 1.28532 (Simulation time: 0 hr 12 min 27 sec) 
Heartbeat CPU 0 instructions: 90000001 cycles: 47376420 heartbeat IPC: 1.26748 cumulative IPC: 1.28082 (Simulation time: 0 hr 13 min 48 sec) 
Heartbeat CPU 0 instructions: 100000000 cycles: 55575351 heartbeat IPC: 1.21967 cumulative IPC: 1.2681 (Simulation time: 0 hr 15 min 4 sec) 
Finished CPU 0 instructions: 50000000 cycles: 39429038 cumulative IPC: 1.2681 (Simulation time: 0 hr 15 min 4 sec) 

ChampSim completed all CPUs

Region of Interest Statistics

CPU 0 cumulative IPC: 1.2681 instructions: 50000000 cycles: 39429038
L1D TOTAL     ACCESS:   19322660  HIT:   18217490  MISS:    1105170
L1D LOAD      ACCESS:    7232507  HIT:    6753095  MISS:     479412
L1D RFO       ACCESS:    5116942  HIT:    5037309  MISS:      79633
L1D PREFETCH  ACCESS:    6973211  HIT:    6427086  MISS:     546125
L1D WRITEBACK ACCESS:          0  HIT:          0  MISS:          0
L1D PREFETCH  REQUESTED:    7276264  ISSUED:    7178453  USEFUL:     275904  USELESS:     270233
L1D AVERAGE MISS LATENCY: 25.663 cycles
L1I TOTAL     ACCESS:   14056367  HIT:   13263159  MISS:     793208
L1I LOAD      ACCESS:    9298310  HIT:    9241725  MISS:      56585
L1I RFO       ACCESS:          0  HIT:          0  MISS:          0
L1I PREFETCH  ACCESS:    4758057  HIT:    4021434  MISS:     736623
L1I WRITEBACK ACCESS:          0  HIT:          0  MISS:          0
L1I PREFETCH  REQUESTED:    4868358  ISSUED:    4862173  USEFUL:     396599  USELESS:     340070
L1I AVERAGE MISS LATENCY: 18.2089 cycles
L2C TOTAL     ACCESS:    3134868  HIT:    2883058  MISS:     251810
L2C LOAD      ACCESS:     505564  HIT:     415683  MISS:      89881
L2C RFO       ACCESS:      75004  HIT:      37110  MISS:      37894
L2C PREFETCH  ACCESS:    2300536  HIT:    2176811  MISS:     123725
L2C WRITEBACK ACCESS:     253764  HIT:     253454  MISS:        310
L2C PREFETCH  REQUESTED:    1924380  ISSUED:    1924240  USEFUL:      32784  USELESS:      90912
L2C AVERAGE MISS LATENCY: 62.8582 cycles
LLC TOTAL     ACCESS:     679288  HIT:     604518  MISS:      74770
LLC LOAD      ACCESS:      89700  HIT:      78038  MISS:      11662
LLC RFO       ACCESS:      37894  HIT:      16902  MISS:      20992
LLC PREFETCH  ACCESS:     461613  HIT:     420577  MISS:      41036
LLC WRITEBACK ACCESS:      90081  HIT:      89001  MISS:       1080
LLC PREFETCH  REQUESTED:          0  ISSUED:          0  USEFUL:      13509  USELESS:      29681
LLC AVERAGE MISS LATENCY: 185.201 cycles
Major fault: 0 Minor fault: 6867
CPU 0 L1D next line prefetcher final stats

DRAM Statistics
 CHANNEL 0
 RQ ROW_BUFFER_HIT:      19904  ROW_BUFFER_MISS:      53780
 DBUS_CONGESTED:      35918
 WQ ROW_BUFFER_HIT:       4493  ROW_BUFFER_MISS:      23570  FULL:          0

 AVG_CONGESTED_CYCLE: 6

CPU 0 Branch Prediction Accuracy: 95.8872% MPKI: 9.67286 Average ROB Occupancy at Mispredict: 67.0588

Branch types
NOT_BRANCH: 38240102 76.4802%
BRANCH_DIRECT_JUMP: 653296 1.30659%
BRANCH_INDIRECT: 37098 0.074196%
BRANCH_CONDITIONAL: 8897819 17.7956%
BRANCH_DIRECT_CALL: 992620 1.98524%
BRANCH_INDIRECT_CALL: 93046 0.186092%
BRANCH_RETURN: 1085674 2.17135%
BRANCH_OTHER: 0 0%

