Initialize SIGNATURE TABLE
ST_SET: 1
ST_WAY: 256
ST_TAG_BIT: 16
ST_TAG_MASK: ffff

Initialize PATTERN TABLE
PT_SET: 512
PT_WAY: 4
SIG_DELTA_BIT: 7
C_SIG_BIT: 4
C_DELTA_BIT: 4

Initialize PREFETCH FILTER
FILTER_SET: 1024

*** ChampSim Multicore Out-of-Order Simulator ***

Warmup Instructions: 50000000
Simulation Instructions: 50000000
Number of CPUs: 1
LLC sets: 2048
LLC ways: 16
Off-chip DRAM Size: 4096 MB Channels: 1 Width: 64-bit Data Rate: 3200 MT/s

CPU 0 runs /Users/brandon/Documents/CoursesWi22/CSE240C/Homework1/ChampSim/ipc1_public/spec_gcc_003.champsimtrace.xz
L1I D-JOLT instruction prefetcher has been constructed!
CPU 0 L1D next line prefetcher
Heartbeat CPU 0 instructions: 10000001 cycles: 3482672 heartbeat IPC: 2.87136 cumulative IPC: 2.87136 (Simulation time: 0 hr 1 min 19 sec) 
Heartbeat CPU 0 instructions: 20000000 cycles: 6947103 heartbeat IPC: 2.88648 cumulative IPC: 2.8789 (Simulation time: 0 hr 2 min 37 sec) 
Heartbeat CPU 0 instructions: 30000002 cycles: 10388106 heartbeat IPC: 2.90613 cumulative IPC: 2.88792 (Simulation time: 0 hr 3 min 52 sec) 
Heartbeat CPU 0 instructions: 40000000 cycles: 13853469 heartbeat IPC: 2.8857 cumulative IPC: 2.88736 (Simulation time: 0 hr 5 min 7 sec) 
Heartbeat CPU 0 instructions: 50000001 cycles: 17165225 heartbeat IPC: 3.01955 cumulative IPC: 2.91287 (Simulation time: 0 hr 6 min 24 sec) 

Warmup complete CPU 0 instructions: 50000001 cycles: 17165225 (Simulation time: 0 hr 6 min 24 sec) 

Heartbeat CPU 0 instructions: 60000000 cycles: 56539818 heartbeat IPC: 0.253971 cumulative IPC: 0.253971 (Simulation time: 0 hr 9 min 50 sec) 
Heartbeat CPU 0 instructions: 70000000 cycles: 98767609 heartbeat IPC: 0.236811 cumulative IPC: 0.245091 (Simulation time: 0 hr 13 min 12 sec) 
Heartbeat CPU 0 instructions: 80000003 cycles: 141767741 heartbeat IPC: 0.232557 cumulative IPC: 0.240766 (Simulation time: 0 hr 16 min 9 sec) 
Heartbeat CPU 0 instructions: 90000002 cycles: 177714110 heartbeat IPC: 0.278192 cumulative IPC: 0.249145 (Simulation time: 0 hr 17 min 38 sec) 
Heartbeat CPU 0 instructions: 100000001 cycles: 223219106 heartbeat IPC: 0.219756 cumulative IPC: 0.242655 (Simulation time: 0 hr 18 min 16 sec) 
Finished CPU 0 instructions: 50000000 cycles: 206053881 cumulative IPC: 0.242655 (Simulation time: 0 hr 18 min 16 sec) 

ChampSim completed all CPUs

Region of Interest Statistics

CPU 0 cumulative IPC: 0.242655 instructions: 50000000 cycles: 206053881
L1D TOTAL     ACCESS:   16804431  HIT:   11080129  MISS:    5724302
L1D LOAD      ACCESS:    4545813  HIT:    4162688  MISS:     383125
L1D RFO       ACCESS:    8202585  HIT:    3150947  MISS:    5051638
L1D PREFETCH  ACCESS:    4056033  HIT:    3766494  MISS:     289539
L1D WRITEBACK ACCESS:          0  HIT:          0  MISS:          0
L1D PREFETCH  REQUESTED:    4563112  ISSUED:    4503098  USEFUL:     152169  USELESS:     137550
L1D AVERAGE MISS LATENCY: 490.408 cycles
L1I TOTAL     ACCESS:   15828333  HIT:   14403245  MISS:    1425088
L1I LOAD      ACCESS:   11274155  HIT:   11208735  MISS:      65420
L1I RFO       ACCESS:          0  HIT:          0  MISS:          0
L1I PREFETCH  ACCESS:    4554178  HIT:    3194510  MISS:    1359668
L1I WRITEBACK ACCESS:          0  HIT:          0  MISS:          0
L1I PREFETCH  REQUESTED:    5156066  ISSUED:    4903654  USEFUL:     811491  USELESS:     548163
L1I AVERAGE MISS LATENCY: 58.1627 cycles
L2C TOTAL     ACCESS:   12734301  HIT:    6632678  MISS:    6101623
L2C LOAD      ACCESS:     236253  HIT:      65599  MISS:     170654
L2C RFO       ACCESS:    5049829  HIT:       6440  MISS:    5043389
L2C PREFETCH  ACCESS:    2290349  HIT:    1402935  MISS:     887414
L2C WRITEBACK ACCESS:    5157870  HIT:    5157704  MISS:        166
L2C PREFETCH  REQUESTED:    2038023  ISSUED:    2037956  USEFUL:      25887  USELESS:     858798
L2C AVERAGE MISS LATENCY: 460.071 cycles
LLC TOTAL     ACCESS:   12011172  HIT:    7355593  MISS:    4655579
LLC LOAD      ACCESS:     170605  HIT:     128199  MISS:      42406
LLC RFO       ACCESS:    5043389  HIT:     733714  MISS:    4309675
LLC PREFETCH  ACCESS:    1663603  HIT:    1360105  MISS:     303498
LLC WRITEBACK ACCESS:    5133575  HIT:    5133575  MISS:          0
LLC PREFETCH  REQUESTED:          0  ISSUED:          0  USEFUL:      12140  USELESS:     291372
LLC AVERAGE MISS LATENCY: 573.532 cycles
Major fault: 0 Minor fault: 2819
CPU 0 L1D next line prefetcher final stats

DRAM Statistics
 CHANNEL 0
 RQ ROW_BUFFER_HIT:    1411873  ROW_BUFFER_MISS:    3243609
 DBUS_CONGESTED:    7984613
 WQ ROW_BUFFER_HIT:    1147783  ROW_BUFFER_MISS:    3190795  FULL:          0

 AVG_CONGESTED_CYCLE: 6

CPU 0 Branch Prediction Accuracy: 99.665% MPKI: 0.78342 Average ROB Occupancy at Mispredict: 124.359

Branch types
NOT_BRANCH: 38305858 76.6117%
BRANCH_DIRECT_JUMP: 384281 0.768562%
BRANCH_INDIRECT: 71949 0.143898%
BRANCH_CONDITIONAL: 9879825 19.7597%
BRANCH_DIRECT_CALL: 650586 1.30117%
BRANCH_INDIRECT_CALL: 28456 0.056912%
BRANCH_RETURN: 679046 1.35809%
BRANCH_OTHER: 0 0%

